Redirecting stdout to /vol1/msoyturk/gem5/results/sssp/dblp.el/prefetch_IndirectMemoryPrefetcher_BIPRP/output.txt
Redirecting stderr to /vol1/msoyturk/gem5/results/sssp/dblp.el/prefetch_IndirectMemoryPrefetcher_BIPRP/error.txt
gem5 Simulator System.  http://gem5.org
gem5 is copyrighted software; use the --copyright option for details.

gem5 compiled Apr 26 2020 13:32:47
gem5 started Apr 26 2020 14:10:44
gem5 executing on draco, pid 2996
command line: /vol1/msoyturk/gem5/build/RISCV/gem5.fast -re --outdir=/vol1/msoyturk/gem5/results/sssp/dblp.el/prefetch_IndirectMemoryPrefetcher_BIPRP --stdout-file=output.txt --stderr-file=error.txt /vol1/msoyturk/gem5/configs/example/my_se.py -c /vol1/msoyturk/gem5/gapbs/sssp -o '-f /vol1/msoyturk/gem5/gapbs/test/graphs/dblp.el' --caches --l1d_size=2kB --l1i_size=2kB --cpu-type=DerivO3CPU -n 4 --mem-size=512MB --l2cache --l2_size=4kB --l2-hwp-type=IndirectMemoryPrefetcher --l2-replacement-policy=BIPRP --l1i_mshrs=4 --l1d_mshrs=4 --l2_mshrs=20 --l1i_write_buffers=8 --l1d_write_buffers=8 --l2_write_buffers=8

info: Standard input is not a terminal, disabling listeners.
Warning: l2-hwp-type is set ( IndirectMemoryPrefetcher ), but the current l2 has a default Hardware Prefetcher of type <class 'm5.params.NullSimObject'> , using the specified by the flag option.
Global frequency set at 1000000000000 ticks per second
**** REAL SIMULATION ****
Read Time:           1.17170
Build Time:          0.25491
Graph has 425957 nodes and 1049866 directed edges for degree: 2
    0          1     0.02908
   36          1     0.00717
  114          2     0.05187
  118          1     0.00577
  120          1     0.00590
  139          1     0.01311
  143          1     0.01241
  147          1     0.02021
  150          2     0.00608
  154          1     0.01277
  156          2     0.01340
  160          1     0.00808
  166          1     0.00618
  168          1     0.00619
  176          1     0.01629
  181          1     0.00556
  182          1     0.00523
  183          1     0.01210
  184          1     0.00571
  186          1     0.00572
  187          1     0.00579
  189          1     0.00612
  191          1     0.03800
  195          1     0.00642
  204          1     0.00908
  208          1     0.00938
  211          3     0.01223
  212          1     0.00931
  214          1     0.00628
  220          1     0.00635
  221          1     0.02273
  222          1     0.00634
  223          1     0.00518
  225          2     0.01893
  227          1     0.01768
  228          1     0.00714
  229          1     0.00571
  230          5     0.00681
  234          1     0.01303
  238          2     0.00627
  239          2     0.01067
  243          1     0.00600
  245          1     0.00963
  247          1     0.00634
  248          2     0.00628
  252          2     0.02487
  254          2     0.00631
  256          4     0.02159
  260          1     0.00884
  262          3     0.00664
  265          3     0.00598
  267          2     0.01084
  268          2     0.01068
  270          2     0.00991
  271          3     0.00579
  272          1     0.00606
  274          3     0.01115
  275          1     0.00602
  276          1     0.00628
  277          1     0.01840
  279          2     0.00690
  280          1     0.00597
  282          1     0.00640
  283          2     0.01079
  284          2     0.00615
  286          1     0.00571
  289          2     0.00656
  291          1     0.01062
  292          2     0.00638
  293          1     0.00573
  294          2     0.00631
  295          2     0.00615
  298          1     0.00563
  299          1     0.00588
  300          1     0.00541
  301          1     0.02035
  302          3     0.00687
  303          2     0.02330
  304          2     0.01701
  305          1     0.01114
  307          1     0.01276
  310          1     0.00580
  311          3     0.01391
  312          1     0.00591
  313          1     0.00618
  314          1     0.00824
  316          2     0.01856
  317          4     0.01116
  318          3     0.01151
  320          1     0.00563
  321          1     0.00608
  323          2     0.02035
  324          1     0.00635
  325          1     0.00620
  326          1     0.00592
  327          3     0.01066
  328          1     0.00639
  329          2     0.00704
  332          3     0.01380
  333          2     0.02677
  334          3     0.02324
  335          3     0.01358
  338          4     0.00994
  341          4     0.01591
  343          3     0.01413
  344          2     0.01283
  345          2     0.01606
  346          1     0.00651
  347          2     0.01022
  349          5     0.02173
  350          1     0.00766
  352          2     0.01390
  353          2     0.00830
  354          2     0.00531
  355          2     0.01324
  356          3     0.01260
  357          3     0.01134
  358          2     0.01032
  359          1     0.00977
  360          3     0.00606
  362          3     0.00611
  363          1     0.00623
  364          2     0.00845
  365          1     0.00561
  366          3     0.00820
  368          3     0.00575
  369          1     0.00561
  370          1     0.01012
  371          5     0.01260
  372          2     0.00894
  373          1     0.00717
  375          1     0.00578
  376          3     0.01809
  377          1     0.00638
  378          1     0.00571
  379          4     0.00633
  380          2     0.01257
  381          2     0.00609
  382          2     0.02671
  383          1     0.01924
  385          4     0.01210
  386          2     0.00760
  387          2     0.01145
  388          2     0.01170
  389          4     0.00755
  390          1     0.01452
  391          4     0.01073
  393          2     0.00595
  394          1     0.00583
  396          2     0.00614
  397          1     0.00918
  398          3     0.00618
  399          4     0.00602
  400          3     0.00608
  401          3     0.00614
  402          1     0.00985
  403          3     0.01645
  404          1     0.00587
  405          3     0.01232
  406          1     0.01712
  407          2     0.00632
  409          5     0.01272
  410          2     0.00558
  411          1     0.00564
  413          2     0.00551
  414          1     0.00544
  415          1     0.01200
  417          3     0.00633
  418          3     0.00699
  419          1     0.00620
  420          2     0.00979
  421          2     0.00822
  422          1     0.00585
  423          2     0.01300
  424          1     0.01136
  425          1     0.00599
  426          1     0.00614
  427          2     0.00704
  428          2     0.01581
  429          3     0.00652
  430          2     0.00609
  431          2     0.00917
  432          1     0.00597
  433          3     0.00982
  434          2     0.00914
  435          2     0.01491
  436          1     0.01026
  437          3     0.00573
  438          3     0.00738
  439          1     0.00564
  441          3     0.00603
  443          1     0.00619
  444          2     0.00539
  445          1     0.01148
  446          4     0.01078
  447          3     0.01105
  448          4     0.00617
  449          2     0.00569
  450          3     0.01125
  451          1     0.00672
  452          2     0.01476
  453          3     0.01094
  454          1     0.01864
  456          3     0.00614
  457          2     0.01791
  458          2     0.00614
  459          1     0.00583
  461          1     0.01076
  462          4     0.01271
  463          3     0.01803
  464          2     0.00585
  465          2     0.00615
  466          3     0.00586
  467          4     0.01784
  468          5     0.01112
  469          2     0.00556
  470          2     0.00573
  471          3     0.00965
  472          3     0.00632
  473          3     0.00752
  474          3     0.01169
  475          5     0.00963
  476          4     0.01013
  477          2     0.00584
  478          2     0.00635
  479          3     0.00880
  480          2     0.00591
  481          2     0.00933
  482          2     0.00666
  483          1     0.00594
  484          1     0.00538
  485          2     0.00911
  486          1     0.01483
  487          5     0.00983
  489          1     0.01201
  490          3     0.00569
  491          4     0.00599
  492          1     0.00807
  493          3     0.01548
  496          2     0.00592
  497          3     0.01323
  498          4     0.03421
  499          2     0.00589
  501          2     0.00806
  502          4     0.00615
  503          1     0.00595
  505          5     0.00608
  506          2     0.01003
  507          3     0.01076
  508          3     0.00596
  509          1     0.00561
  510          2     0.01937
  511          5     0.02263
  512          1     0.01470
  513          3     0.00632
  514          2     0.00555
  515          4     0.01006
  516          2     0.01284
  517          2     0.01419
  518          3     0.02331
  519          3     0.01300
  520          1     0.00961
  521          2     0.00564
  522          3     0.00598
  523          1     0.00555
  527          4     0.03594
  528          4     0.01010
  529          2     0.00605
  530          3     0.00863
  531          5     0.02120
  532          1     0.00904
  533          4     0.01156
  534          1     0.00602
  535          4     0.00587
  537          2     0.00947
  538          1     0.00582
  539          4     0.00617
  540          1     0.00621
  541          4     0.01548
  542          2     0.00591
  543         10     0.01465
  544          3     0.01869
  545          2     0.00556
  546          2     0.00731
  547          3     0.01427
  548          3     0.00580
  549          3     0.01014
  550          4     0.01367
  551          2     0.01306
  552          2     0.00610
  553          1     0.00526
  555          2     0.00554
  556          4     0.00613
  557          1     0.01246
  558          2     0.00629
  559          4     0.01277
  560          2     0.00564
  561          1     0.01329
  562          6     0.00620
  563          1     0.00600
  564          2     0.01225
  565          1     0.00598
  566          5     0.01387
  567          4     0.00636
  568          2     0.01292
  569          3     0.00991
  570          1     0.00583
  571          2     0.00554
  572          3     0.00571
  573          2     0.00592
  574          2     0.00610
  575          1     0.00518
  576          6     0.00609
  577          2     0.00550
  578          1     0.00590
  579          1     0.00603
  581          6     0.01001
  582          2     0.00634
  583          1     0.00570
  584          3     0.02109
  585          1     0.00604
  586          6     0.01077
  587          5     0.00884
  588          3     0.01066
  589          3     0.00689
  590          2     0.01622
  591          4     0.01004
  592          6     0.01628
  594          4     0.00679
  595          1     0.00597
  597          2     0.00587
  598          2     0.00578
  599          3     0.00586
  600          1     0.00554
  601          1     0.00604
  602          1     0.00604
  603          2     0.01073
  604          3     0.00802
  605          5     0.00763
  606          3     0.01784
  607          2     0.00568
  608          3     0.00571
  609          2     0.00824
  610          2     0.00579
  611          2     0.00956
  612          1     0.01282
  614          1     0.01142
  615          3     0.00639
  616          4     0.00620
  617          2     0.01251
  618          3     0.01440
  619          5     0.00588
  622          3     0.01227
  623          5     0.00931
  624          3     0.01272
  625          2     0.00593
  626          3     0.00823
  627          4     0.02220
  628          3     0.00957
  630          4     0.00861
  631          1     0.00655
  632          1     0.00588
  633          4     0.02291
  634          1     0.01470
  635          1     0.00618
  636          1     0.01039
  637          4     0.01895
  638          1     0.00611
  640          4     0.02056
  641          3     0.01297
  642          1     0.00842
  643          2     0.01962
  644          3     0.00617
  645          1     0.00552
  646          1     0.00586
  647          3     0.02380
  648          1     0.00699
  649          1     0.00616
  650          2     0.00671
  652          4     0.02041
  653          4     0.00626
  655          3     0.01086
  656          1     0.00995
  657          1     0.00604
  658          1     0.00641
  660          1     0.00603
  661          1     0.00575
  662          2     0.00524
  663          3     0.01203
  664          3     0.00594
  665          4     0.01981
  666          2     0.00669
  667          3     0.00589
  668          1     0.01482
  669          1     0.01631
  670          1     0.00545
  671          3     0.00825
  672          2     0.00605
  674          1     0.00561
  675          2     0.00564
  677          1     0.01091
  678          3     0.01145
  679          3     0.00532
  680          4     0.00841
  681          4     0.00682
  682          7     0.01405
  683          2     0.00847
  684          1     0.00548
  685          4     0.02510
  686          4     0.01752
  687          4     0.00920
  688          3     0.01413
  690          4     0.00581
  691          1     0.00529
  692          3     0.03269
  693          2     0.00635
  694          3     0.00940
  695          3     0.03067
  696          1     0.00796
  697          6     0.01235
  698          1     0.01151
  699          7     0.01473
  700          2     0.00601
  701          3     0.01234
  702          1     0.00639
  703          3     0.00947
  704          1     0.02530
  705          3     0.01382
  706          2     0.00762
  707          3     0.00659
  708          5     0.01277
  710          6     0.00966
  711          6     0.01058
  712          3     0.01175
  713          3     0.01167
  714          6     0.02113
  715          2     0.00908
  716          1     0.00528
  717          1     0.02807
  718          2     0.01916
  719          4     0.01224
  720          1     0.01612
  721          6     0.01157
  722          3     0.02558
  723          5     0.00868
  724          3     0.01001
  725          6     0.01036
  726          1     0.00839
  727          5     0.00628
  728          3     0.00573
  729          6     0.01957
  730          4     0.02015
  731          3     0.01050
  732          3     0.00716
  733          1     0.00633
  734          5     0.02028
  735          3     0.00660
  736          2     0.00601
  737          4     0.00934
  738          2     0.00600
  739          3     0.01294
  740          2     0.01371
  741          4     0.01154
  742          4     0.00851
  743          4     0.01143
  744          5     0.01030
  745          3     0.01140
  746          3     0.00831
  747          4     0.00744
  748          3     0.00639
  749          1     0.00562
  750          6     0.00691
  751          5     0.01687
  752          5     0.01870
  753          2     0.00588
  754          3     0.00601
  755          5     0.00996
  756          5     0.01104
  757          5     0.01356
  758          1     0.00746
  759          2     0.01664
  760          7     0.02186
  761          4     0.01958
  762          4     0.00689
  763          3     0.00844
  764          4     0.00721
  765          4     0.01941
  766          2     0.00539
  767          2     0.00536
  768          3     0.01185
  769          2     0.00952
  770          4     0.01306
  771          3     0.01065
  772          3     0.02432
  773          2     0.00571
  774          4     0.01065
  775          2     0.00581
  776          2     0.01862
  777          4     0.00774
  778          5     0.02799
  779          6     0.02025
  780          2     0.01052
  781          3     0.01190
  782          2     0.00580
  783          4     0.00630
  784          5     0.01104
  786          3     0.00610
  788          6     0.01627
  789          4     0.01682
  790          5     0.00966
  791          4     0.01150
  792          2     0.01735
  793          4     0.01744
  794          2     0.00638
  796          1     0.00962
  797          3     0.00999
  798          2     0.00709
  799          4     0.01317
  800          2     0.00979
  801          3     0.01513
  802          6     0.01925
  803          3     0.00637
  804          3     0.01783
  805          3     0.01346
  806          3     0.01523
  807          4     0.01422
  808          4     0.01655
  809          4     0.00671
  810          2     0.01453
  811          2     0.00857
  812          5     0.01849
  813          5     0.01145
  814          2     0.01058
  815          2     0.01307
  816          3     0.00586
  817          5     0.00674
  818          5     0.00654
  819          2     0.00629
  820          4     0.01036
  821          2     0.00641
  822          3     0.01204
  823          1     0.00549
  824          8     0.00855
  825          1     0.00587
  826          5     0.01125
  827          8     0.05016
  828          7     0.01331
  829          2     0.00580
  830          7     0.01288
  831          5     0.00673
  832          2     0.00974
  833          2     0.00644
  834          3     0.00873
  835          3     0.01196
  836          4     0.01773
  837          5     0.01028
  838          3     0.01035
  839          6     0.02494
  840          3     0.01083
  841          6     0.02655
  842          8     0.02206
  843          2     0.01087
  844          2     0.00571
  845          4     0.00723
  846          3     0.01085
  847          8     0.02041
  848          6     0.02780
  849          3     0.00592
  850          3     0.00625
  851          3     0.01850
  852          2     0.01079
  853          5     0.01158
  854          6     0.01069
  855          7     0.00882
  856          2     0.00574
  857          2     0.00774
  858          8     0.00615
  859          5     0.01151
  860          3     0.00973
  861          5     0.01379
  862          2     0.01858
  863          3     0.01049
  864          8     0.01406
  865          8     0.01355
  866          7     0.00708
  867          5     0.01144
  868          7     0.00898
  869          7     0.00719
  870          3     0.00546
  871          5     0.00764
  872         10     0.01193
  873          5     0.00878
  874         10     0.01854
  875          4     0.01596
  876          3     0.01512
  877          5     0.00880
  878          6     0.00957
  879          7     0.01717
  880          3     0.01071
  881          2     0.00588
  882          3     0.00656
  883          5     0.00848
  884          4     0.01440
  885          3     0.01191
  886          2     0.01062
  887          3     0.01583
  888          6     0.01291
  889          3     0.00641
  890          5     0.01845
  891          5     0.01057
  892          6     0.00610
  893          2     0.00618
  894          4     0.00624
  895          7     0.02496
  896          5     0.00911
  897          7     0.00665
  898          8     0.02025
  899          3     0.00643
  900          3     0.01156
  901          4     0.00614
  902          2     0.00589
  903          3     0.01179
  904          1     0.01176
  905          3     0.00620
  906          4     0.01214
  907          4     0.01173
  908          5     0.00724
  909          5     0.00960
  910          5     0.00918
  911         10     0.02497
  912          4     0.00605
  913          3     0.00609
  914          2     0.00585
  915          5     0.02808
  916          5     0.01517
  917          4     0.00982
  918          4     0.01274
  919          8     0.01148
  920          6     0.01249
  921          8     0.01664
  922          7     0.02076
  923          8     0.01310
  924          7     0.01124
  925          6     0.00965
  926          4     0.00931
  927          5     0.01246
  928          8     0.01135
  929          3     0.01031
  930          4     0.01853
  931          3     0.02146
  932          5     0.01344
  933          4     0.02009
  934          6     0.00633
  935          5     0.01352
  936          4     0.00766
  937          2     0.00643
  938          4     0.00588
  939          5     0.01290
  940          4     0.00915
  941          7     0.02057
  942          4     0.00782
  943          2     0.01007
  944          4     0.00709
  945          3     0.00967
  946          5     0.00901
  947          4     0.01093
  948          5     0.00997
  949          3     0.02090
  950          4     0.01639
  951          4     0.00662
  952          4     0.00919
  953          7     0.00982
  954          7     0.01227
  955          5     0.01282
  956          7     0.01855
  957         12     0.01845
  958          9     0.01811
  959          7     0.01243
  960          3     0.00577
  961          7     0.01367
  962          5     0.00605
  963          9     0.00988
  964          6     0.04867
  965          4     0.01458
  966          3     0.01139
  967          4     0.00592
  968          8     0.03319
  969          3     0.00576
  970          8     0.02325
  971          5     0.01017
  972          7     0.01032
  973          3     0.01876
  974          5     0.01150
  975          3     0.01174
  976          4     0.00660
  977          7     0.02102
  978         11     0.02461
  979          6     0.01037
  980          3     0.01043
  981          3     0.00847
  982          3     0.01111
  983          6     0.01259
  984          5     0.00988
  985          7     0.02908
  986          6     0.01207
  987          5     0.01807
  988          8     0.00972
  989          5     0.00749
  990          8     0.01926
  991          8     0.00915
  992          7     0.00962
  993          7     0.01261
  994          5     0.01202
  995          5     0.00890
  996          4     0.00629
  997          4     0.00646
  998          7     0.00869
  999         11     0.02262
 1000          5     0.00845
 1001          7     0.00903
 1002          8     0.00576
 1003          6     0.00958
 1004          8     0.01727
 1005          6     0.01770
 1006          6     0.01229
 1007          4     0.01158
 1008          6     0.01081
 1009          9     0.01904
 1010          5     0.01321
 1011          4     0.00683
 1012          7     0.01947
 1013          8     0.00644
 1014          5     0.02261
 1015          6     0.01500
 1016          5     0.00727
 1017          7     0.01231
 1018          2     0.00578
 1019          6     0.00786
 1020          5     0.01374
 1021          7     0.00989
 1022          7     0.01829
 1023          4     0.00603
 1024          6     0.01134
 1025          3     0.00575
 1026          4     0.01373
 1027          9     0.01160
 1028          5     0.01076
 1029          2     0.00885
 1030          6     0.00665
 1031          8     0.01930
 1032          7     0.00641
 1033          2     0.00619
 1034          4     0.01144
 1035          5     0.01620
 1036          6     0.00665
 1037          4     0.00634
 1038          4     0.00597
 1039          5     0.00638
 1040          3     0.01092
 1041          6     0.01852
 1042          5     0.00668
 1043          8     0.02124
 1044          9     0.01003
 1045          3     0.00601
 1046          6     0.00629
 1047          6     0.01193
 1048          2     0.01164
 1049          4     0.00625
 1050          3     0.00625
 1051          5     0.01704
 1052          6     0.01957
 1053          3     0.00654
 1054          3     0.00660
 1055          6     0.02124
 1056          9     0.02514
 1057          4     0.01506
 1058          7     0.00698
 1059          7     0.01638
 1060          6     0.00887
 1061          5     0.00861
 1062          6     0.01317
 1063          6     0.02306
 1064          2     0.00553
 1065          3     0.02115
 1066          6     0.00854
 1067          9     0.01083
 1068          5     0.01853
 1069          9     0.02853
 1070         10     0.02332
 1071          1     0.00591
 1072          4     0.01519
 1073          4     0.00627
 1074          5     0.00634
 1075          5     0.01343
 1076          6     0.01546
 1077          4     0.00750
 1078          4     0.01652
 1079          4     0.00852
 1080          9     0.01093
 1081          9     0.00950
 1082          4     0.00673
 1083          3     0.01197
 1084         10     0.00830
 1085          4     0.00911
 1086          6     0.01312
 1087          5     0.01196
 1088          5     0.01475
 1089          2     0.00502
 1090          7     0.00797
 1091          2     0.01209
 1092          3     0.00624
 1093          8     0.01178
 1094          5     0.00827
 1095          4     0.00855
 1096          8     0.00888
 1097          7     0.02821
 1098          1     0.00606
 1099          4     0.00953
 1100          7     0.01219
 1101          6     0.01226
 1102          7     0.01822
 1103          4     0.01016
 1104          8     0.02510
 1105          5     0.01896
 1106         10     0.01192
 1107          8     0.01175
 1108          9     0.00852
 1109          2     0.00528
 1110          5     0.01326
 1111          5     0.00608
 1112          5     0.01285
 1113          7     0.00751
 1114          4     0.01227
 1115          4     0.00613
 1116          4     0.01573
 1117         10     0.00630
 1118          5     0.02429
 1119          7     0.02634
 1120          6     0.00656
 1121          2     0.00575
 1122          5     0.00679
 1123          3     0.01542
 1124          8     0.01154
 1125          5     0.00696
 1126          2     0.00784
 1127          5     0.02524
 1128          3     0.01159
 1129          6     0.00591
 1130          4     0.00890
 1131          4     0.01384
 1132          9     0.02474
 1133          6     0.01362
 1134          6     0.02173
 1135          2     0.00618
 1136         11     0.01755
 1137          5     0.00880
 1138          5     0.01291
 1139          4     0.00905
 1140          6     0.01123
 1141          6     0.01060
 1142          8     0.01929
 1143          7     0.00946
 1144          2     0.00590
 1145          4     0.01185
 1146          6     0.01256
 1147          6     0.01023
 1148          3     0.01384
 1149          5     0.00999
 1150          4     0.00647
 1151          5     0.01682
 1152          4     0.00561
 1153          5     0.00610
 1154          5     0.01231
 1155          6     0.00641
 1156          4     0.00631
 1157          7     0.01194
 1158          5     0.00928
 1159          4     0.01064
 1160          7     0.01216
 1161          5     0.00683
 1162          4     0.01374
 1163          3     0.00883
 1164          7     0.00624
 1165          6     0.00701
 1166          7     0.00659
 1167          7     0.00854
 1168          7     0.01225
 1169          4     0.00650
 1170          1     0.00600
 1171          4     0.01467
 1172          1     0.00604
 1173          7     0.00626
 1174          5     0.00888
 1175          2     0.00607
 1176          4     0.01706
 1177          2     0.01128
 1178          8     0.01708
 1179          7     0.01374
 1180          7     0.01184
 1181          8     0.01009
 1182          4     0.00645
 1183          2     0.00601
 1184          7     0.01821
 1185          2     0.00541
 1186          3     0.00562
 1187          9     0.01433
 1188          4     0.00830
 1189          6     0.01041
 1190          1     0.01217
 1191          4     0.00917
 1192          3     0.00835
 1193          3     0.02097
 1194          6     0.01226
 1195          7     0.00848
 1196          8     0.00737
 1197          3     0.00689
 1198          3     0.01721
 1199          4     0.00922
 1200          6     0.00617
 1201          5     0.00715
 1202          3     0.00658
 1203          3     0.00585
 1204          5     0.00890
 1205          5     0.00891
 1206          7     0.00916
 1207          7     0.02757
 1208          7     0.01479
 1209          6     0.00906
 1210          3     0.01029
 1211          6     0.00732
 1212          4     0.01441
 1213          4     0.00623
 1214          3     0.00609
 1215          4     0.01449
 1216          8     0.00746
 1217          5     0.01727
 1218          5     0.00697
 1219          2     0.00600
 1220          4     0.00870
 1221          3     0.00601
 1222          4     0.01319
 1223          6     0.00635
 1224          4     0.00763
 1225          5     0.00608
 1226          5     0.00615
 1227          3     0.00581
 1228          2     0.00864
 1229          2     0.00640
 1230          8     0.01986
 1231          3     0.00617
 1232          5     0.00648
 1233          9     0.00692
 1234          9     0.01211
 1235          7     0.01152
 1236          3     0.01052
 1237          2     0.00962
 1238          6     0.00667
 1239          1     0.00639
 1240          3     0.01387
 1241          7     0.01359
 1242          1     0.00579
 1243          4     0.00625
 1244          4     0.00590
 1245          1     0.00545
 1246          8     0.00959
 1247          8     0.00570
 1248          2     0.00573
 1249          2     0.00616
 1250          1     0.00536
 1251          7     0.01043
 1252          5     0.01702
 1253          1     0.00547
 1254          3     0.00613
 1255          2     0.00647
 1256          4     0.00678
 1257          3     0.01755
 1258          4     0.00838
 1259          3     0.01214
 1261          4     0.00651
 1262          2     0.00555
 1263          3     0.00596
 1264          1     0.00528
 1265          2     0.00628
 1266          4     0.01188
 1267          1     0.00531
 1268          6     0.01053
 1269          1     0.00711
 1270          6     0.02455
 1271          1     0.00541
 1272          2     0.01683
 1273          5     0.00558
 1274          1     0.00547
 1275          1     0.00562
 1276          3     0.00604
 1277          4     0.05563
 1278          6     0.01120
 1279          5     0.00590
 1280          4     0.00775
 1281          5     0.00575
 1282          1     0.00565
 1283          4     0.00627
 1284          6     0.01227
 1285          1     0.00581
 1286          6     0.02385
 1287          4     0.00637
 1288          6     0.00596
 1289          1     0.00620
 1291          5     0.01564
 1292          4     0.00628
 1293          1     0.00582
 1294          4     0.01148
 1295          5     0.01071
 1296          3     0.00640
 1297          3     0.01004
 1298          2     0.00568
 1299          2     0.00792
 1300          1     0.00597
 1301          3     0.00614
 1302          3     0.00560
 1303          4     0.01134
 1304          2     0.00766
 1305          5     0.01228
 1306          4     0.00978
 1307          2     0.01456
 1308          3     0.00824
 1309          8     0.01783
 1310          4     0.00588
 1311          7     0.01976
 1312          3     0.00617
 1313          1     0.00553
 1314          1     0.00540
 1315          1     0.00534
 1316          5     0.01117
 1317          5     0.00623
 1318          3     0.00606
 1319          1     0.00560
 1320          3     0.00840
 1321          1     0.01409
 1322          2     0.00589
 1323          1     0.00629
 1324          1     0.00607
 1325          2     0.00633
 1326          3     0.00616
 1327          3     0.00574
 1328          5     0.00588
 1329          4     0.00628
 1330          3     0.00638
 1331          2     0.00834
 1332          3     0.00615
 1333          3     0.00568
 1334          3     0.00604
 1335          1     0.00571
 1336          1     0.01098
 1337          4     0.00627
 1338          1     0.00575
 1339          2     0.00595
 1340          4     0.01140
 1341          3     0.01332
 1342          3     0.01226
 1343          3     0.01158
 1344          3     0.00645
 1345          1     0.00546
 1346          5     0.00649
 1347          2     0.00579
 1348          2     0.01555
 1349          4     0.00533
 1350          1     0.00697
 1351          2     0.00608
 1352          4     0.00913
 1353          2     0.00598
 1354          1     0.00530
 1355          3     0.01337
 1356          2     0.00560
 1357          2     0.00580
 1358          3     0.00935
 1359          2     0.00539
 1360          1     0.00540
 1361          1     0.00564
 1362          2     0.00679
 1363          3     0.01533
 1365          3     0.00549
 1366          5     0.00566
 1367          2     0.00914
 1368          4     0.01221
 1369          1     0.00573
 1370          2     0.00604
 1371          1     0.00582
 1372          2     0.00582
 1373          1     0.00541
 1374          2     0.00555
 1375          2     0.00696
 1376          2     0.00572
 1377          4     0.00645
 1378          2     0.00552
 1379          1     0.01947
 1380          3     0.01852
 1382          1     0.01071
 1383          1     0.00547
 1385          1     0.00570
 1386          4     0.00996
 1387          1     0.00592
 1388          2     0.00610
 1389          3     0.01302
 1391          1     0.00565
 1392          3     0.01019
 1393          5     0.01044
 1394          5     0.01121
 1395          4     0.00845
 1396          1     0.00926
 1397          2     0.00584
 1398          2     0.00613
 1399          2     0.00624
 1400          1     0.01057
 1401          2     0.00636
 1402          1     0.00600
 1403          3     0.01799
 1404          4     0.00621
 1405          2     0.00581
 1406          1     0.01155
 1407          1     0.00602
 1408          2     0.01284
 1409          5     0.00579
 1410          2     0.00896
 1411          2     0.00569
 1412          3     0.00624
 1414          4     0.00967
 1415          1     0.00645
 1416          3     0.00624
 1417          3     0.00834
 1418          2     0.00609
 1420          2     0.02011
 1421          2     0.00832
 1422          3     0.00550
 1423          2     0.00954
 1424          2     0.00553
 1425          3     0.00613
 1426          2     0.00607
 1427          1     0.00625
 1428          1     0.00598
 1431          4     0.01498
 1432          1     0.00611
 1433          1     0.00545
 1434          1     0.00575
 1435          2     0.00633
 1436          4     0.01128
 1438          1     0.00563
 1440          4     0.01285
 1441          2     0.00569
 1442          1     0.00503
 1443          3     0.00639
 1444          4     0.00584
 1447          1     0.00553
 1448          1     0.00562
 1449          1     0.00594
 1450          2     0.00982
 1452          1     0.00566
 1453          2     0.00556
 1454          2     0.00557
 1456          1     0.00883
 1457          1     0.00565
 1458          2     0.00556
 1459          2     0.00624
 1460          4     0.00633
 1461          2     0.01151
 1462          3     0.00680
 1463          4     0.01464
 1464          1     0.00530
 1465          1     0.00861
 1467          1     0.01255
 1468          3     0.01260
 1471          2     0.00530
 1472          2     0.01487
 1473          2     0.00647
 1474          1     0.00644
 1475          2     0.01251
 1476          1     0.00586
 1477          2     0.00598
 1478          3     0.00655
 1479          1     0.00618
 1480          1     0.00615
 1482          4     0.00680
 1483          1     0.00604
 1484          3     0.01185
 1485          1     0.00766
 1486          2     0.01273
 1487          4     0.00855
 1490          2     0.00590
 1491          1     0.00504
 1494          1     0.00466
 1498          1     0.00666
 1499          1     0.00632
 1500          1     0.00603
 1501          2     0.00960
 1502          3     0.00570
 1504          1     0.00545
 1505          1     0.00544
 1506          1     0.00561
 1507          2     0.00873
 1509          1     0.00562
 1510          1     0.00554
 1511          2     0.00624
 1512          1     0.00590
 1513          2     0.01365
 1514          1     0.00610
 1515          2     0.00575
 1517          1     0.00575
 1519          2     0.01532
 1520          1     0.00522
 1521          4     0.01213
 1524          1     0.00868
 1525          5     0.01788
 1526          1     0.00533
 1527          3     0.00596
 1528          3     0.00601
 1530          2     0.00593
 1531          3     0.00882
 1532          2     0.00608
 1534          3     0.00957
 1535          2     0.00637
 1537          1     0.00613
 1539          2     0.00583
 1541          1     0.00587
 1544          3     0.00850
 1546          1     0.00585
 1551          2     0.01166
 1553          1     0.00592
 1555          1     0.00583
 1559          4     0.00765
 1560          1     0.00583
 1561          3     0.00636
 1565          1     0.00604
 1567          1     0.00603
 1568          1     0.01224
 1569          3     0.00695
 1570          2     0.00611
 1571          2     0.00572
 1572          3     0.00893
 1573          1     0.01028
 1574          1     0.00735
 1575          1     0.00588
 1577          2     0.00584
 1578          1     0.00998
 1579          2     0.00628
 1581          1     0.00596
 1583          2     0.00578
 1585          1     0.00887
 1586          1     0.01104
 1587          1     0.00516
 1588          2     0.00548
 1589          1     0.00606
 1590          1     0.00576
 1591          2     0.00544
 1592          2     0.00572
 1594          1     0.00530
 1595          1     0.01198
 1596          2     0.00634
 1597          2     0.01174
 1601          2     0.00608
 1602          2     0.01464
 1603          2     0.00582
 1604          2     0.00580
 1605          1     0.00562
 1611          1     0.00575
 1615          1     0.00589
 1617          1     0.00618
 1621          2     0.01066
 1622          1     0.00594
 1623          1     0.00676
 1624          1     0.00872
 1625          1     0.00567
 1626          1     0.00554
 1628          1     0.00579
 1629          3     0.01161
 1631          1     0.00567
 1633          2     0.00744
 1634          1     0.00628
 1635          2     0.01287
 1636          1     0.00524
 1637          1     0.00746
 1642          2     0.00594
 1644          1     0.00667
 1647          1     0.00943
 1649          1     0.00609
 1650          1     0.00597
 1651          1     0.00535
 1652          2     0.00579
 1653          1     0.00561
 1654          1     0.00527
 1658          1     0.00935
 1659          1     0.01021
 1661          2     0.00570
 1664          1     0.01112
 1668          1     0.00574
 1670          1     0.00591
 1671          2     0.00629
 1672          1     0.00585
 1673          1     0.00557
 1675          1     0.01026
 1676          1     0.00578
 1679          2     0.01223
 1680          1     0.00601
 1681          1     0.00604
 1683          1     0.00611
 1686          1     0.00588
 1687          1     0.00623
 1688          1     0.00621
 1689          1     0.00909
 1690          1     0.00606
 1693          1     0.00557
 1694          1     0.00581
 1695          1     0.00573
 1697          1     0.00550
 1702          1     0.04047
 1704          1     0.00754
 1706          2     0.00694
 1707          1     0.01114
 1708          1     0.00708
 1711          1     0.00710
 1712          2     0.05843
 1714          1     0.00637
 1715          1     0.00592
 1717          1     0.00574
 1718          1     0.00567
 1721          1     0.00626
 1726          2     0.00577
 1729          2     0.01125
 1735          1     0.00979
 1740          1     0.01266
 1741          1     0.00627
 1745          1     0.00950
 1749          1     0.00604
 1750          1     0.00587
 1753          1     0.00637
 1762          1     0.00598
 1763          1     0.00604
 1765          3     0.00667
 1771          2     0.00969
 1772          1     0.00626
 1773          2     0.01127
 1775          1     0.00563
 1778          1     0.00612
 1779          1     0.00745
 1784          1     0.00652
 1785          1     0.00629
 1786          2     0.00545
 1789          1     0.00643
 1790          1     0.00573
 1791          1     0.00629
 1793          1     0.00626
 1796          1     0.00606
 1798          1     0.00615
 1799          1     0.00589
 1805          1     0.00586
 1818          1     0.00606
 1819          2     0.00623
 1826          1     0.00649
 1832          1     0.00646
 1846          1     0.00588
 1847          1     0.00638
 1848          1     0.00687
 1849          2     0.00704
 1851          1     0.00708
 1857          1     0.00651
 1860          1     0.00624
 1866          1     0.00683
 1871          1     0.01293
 1879          1     0.00599
 1883          1     0.00592
 1888          2     0.01173
 1901          2     0.00682
 1902          1     0.00599
 1907          1     0.00624
 1908          1     0.00671
 1914          1     0.00609
 1944          1     0.00949
 1950          1     0.00613
 1958          1     0.00690
 1961          1     0.00754
 2036          1     0.00684
 2044          1     0.00673
 2116          1     0.01072
 2175          1     0.00689
 2269          1     0.01009
 2318          1     0.01542
 2365          1     0.00633
 2375          1     0.01096
 2510          1     0.00596
 2518          1     0.00587
 2555          1     0.00574
 2569          1     0.00575
took 1390 iterations
Trial Time:          0.04128
    0          1     0.01620
   59          1     0.00593
took 2 iterations
Trial Time:          0.00046
    0          1     0.01714
  127          1     0.00573
took 2 iterations
Trial Time:          0.00046
    0          1     0.02614
   63          1     0.01280
  101          1     0.00564
  107          1     0.00538
  111          1     0.01203
  126          1     0.01125
  182          1     0.00958
  184          2     0.01464
  187          1     0.00689
  188          1     0.00652
  196          1     0.00664
  204          1     0.00787
  205          1     0.00553
  231          1     0.00650
  238          1     0.00670
  250          1     0.00628
  318          1     0.00570
  322          1     0.00615
  341          1     0.00608
took 19 iterations
Trial Time:          0.00094
    0          1     0.01539
   15          1     0.00614
took 2 iterations
Trial Time:          0.00045
    0          1     0.02083
   21          1     0.04478
   24          1     0.01512
   32          1     0.03241
   34          1     0.01830
   46          1     0.01762
   48          1     0.04432
   53          1     0.00659
   55          1     0.01641
   60          2     0.01967
   63          1     0.02894
   65          1     0.00658
   66          2     0.01876
   67          3     0.02233
   68          2     0.02825
   69          1     0.01465
   70          1     0.01081
   71          1     0.00656
   72          1     0.01148
   73          1     0.02139
   74          3     0.02190
   76          1     0.00923
   78          1     0.01430
   79          1     0.00844
   81          2     0.00918
   82          1     0.00630
   83          1     0.00639
   86          1     0.00600
   87          1     0.00642
   88          1     0.00618
   89          1     0.01150
   91          1     0.01669
   92          2     0.01219
   93          1     0.00816
   95          2     0.01144
   97          1     0.01027
   98          1     0.01600
   99          1     0.01875
  100          1     0.00801
  101          1     0.00908
  102          1     0.00619
  104          3     0.01130
  106          3     0.00687
  108          1     0.00633
  110          1     0.00578
  111          2     0.01592
  112          1     0.00587
  113          1     0.00601
  114          2     0.04486
  116          2     0.00804
  119          2     0.00830
  121          3     0.01072
  122          2     0.01044
  124          1     0.00624
  125          2     0.00766
  126          2     0.03122
  127          2     0.00606
  128          2     0.00651
  130          1     0.00629
  131          2     0.01350
  132          2     0.00662
  133          5     0.02428
  134          4     0.00916
  135          1     0.02902
  136          2     0.02483
  137          1     0.01831
  138          3     0.00838
  139          1     0.01094
  140          3     0.02679
  141          4     0.02608
  142          1     0.00591
  143          1     0.00939
  144          3     0.02199
  145          2     0.00678
  146          3     0.02513
  147          3     0.01219
  148          3     0.00931
  149          1     0.02163
  150          1     0.00639
  151          2     0.00915
  152          1     0.00937
  153          1     0.00608
  154          4     0.01263
  155          1     0.00601
  156          6     0.01125
  157          5     0.01706
  158          3     0.01143
  159          3     0.02220
  160          8     0.03327
  161          2     0.00632
  162          2     0.01735
  163          1     0.00594
  164          2     0.00573
  165          4     0.02206
  166          4     0.01690
  167          3     0.01735
  168          3     0.01940
  169          3     0.02031
  170          3     0.00680
  171          1     0.00601
  172          1     0.00905
  173          5     0.01142
  174          3     0.01917
  175          3     0.01371
  176          5     0.01235
  177          4     0.01645
  178          2     0.00632
  179          5     0.01911
  180          5     0.00693
  181          3     0.01210
  182          3     0.01005
  184          5     0.02812
  185          4     0.02071
  186          6     0.01591
  187          4     0.01163
  188          5     0.01699
  189          4     0.01316
  190          4     0.04777
  191          1     0.00952
  193          6     0.02888
  194          3     0.00641
  195          2     0.00815
  196          4     0.01118
  197          2     0.00907
  198          1     0.00870
  199          2     0.01157
  200          8     0.01727
  201          2     0.01507
  202          2     0.01374
  203          7     0.02647
  204          7     0.01293
  205          3     0.00781
  206          4     0.00846
  207          3     0.01163
  208          4     0.01027
  209          5     0.02401
  210          8     0.01996
  211          6     0.02406
  212          4     0.00972
  213          4     0.01965
  214          5     0.01182
  215          9     0.03969
  216          6     0.01115
  217          5     0.01085
  218          5     0.01707
  219          6     0.01773
  220          7     0.02552
  221          6     0.02083
  222          3     0.00741
  223          6     0.01996
  224          2     0.01722
  225          3     0.02171
  226          5     0.00756
  227          3     0.02596
  228          4     0.01353
  229          7     0.01707
  230         13     0.02709
  231          7     0.02155
  232          4     0.00663
  233          5     0.02122
  234          7     0.01910
  235          3     0.00877
  236          6     0.01575
  237          3     0.00797
  238          6     0.01116
  239          6     0.01733
  240          3     0.00984
  241          6     0.01289
  242          8     0.03974
  243          8     0.03888
  244          9     0.01232
  245          9     0.03073
  246          6     0.00677
  247         13     0.03734
  248          3     0.01650
  249          8     0.01684
  250          5     0.01246
  251          8     0.00742
  252          8     0.01431
  253         10     0.01949
  254          4     0.00858
  255          5     0.01305
  256          6     0.02124
  257          8     0.02672
  258          9     0.04575
  259          9     0.01997
  260         12     0.03292
  261          8     0.01419
  262          3     0.00614
  263          6     0.02314
  264          2     0.00622
  265         11     0.02108
  266          7     0.01975
  267         11     0.01526
  268          9     0.02831
  269          7     0.00918
  270          8     0.00672
  271          6     0.01969
  272          8     0.04211
  273         11     0.02181
  274          8     0.02555
  275          5     0.01226
  276          7     0.04494
  277          6     0.01504
  278         10     0.03585
  279          4     0.01249
  280         10     0.03209
  281         12     0.02910
  282          5     0.00673
  283         12     0.01529
  284          8     0.00677
  285          6     0.02026
  286          5     0.00656
  287          8     0.02597
  288          4     0.02446
  289          8     0.01690
  290         12     0.06029
  291          8     0.03019
  292         15     0.02226
  293          8     0.00833
  294          9     0.03413
  295          7     0.00708
  296          8     0.02162
  297         10     0.02514
  298          8     0.02044
  299         10     0.04790
  300          8     0.01667
  301          6     0.02536
  302          5     0.00983
  303         14     0.04451
  304          7     0.01062
  305          7     0.01577
  306          8     0.02090
  307          8     0.01470
  308         12     0.02397
  309         13     0.03142
  310          7     0.01450
  311         15     0.02788
  312          6     0.01357
  313         12     0.01923
  314         11     0.02394
  315          8     0.02522
  316          9     0.02157
  317          6     0.00729
  318          7     0.01610
  319         10     0.02132
  320         11     0.02184
  321          9     0.01939
  322         13     0.02449
  323         10     0.01597
  324          8     0.02094
  325         11     0.01397
  326         16     0.06268
  327         18     0.01615
  328         12     0.03440
  329          7     0.01702
  330         12     0.01701
  331          7     0.02737
  332         13     0.02838
  333         10     0.03745
  334          9     0.01438
  335         12     0.01280
  336         12     0.01326
  337         11     0.00963
  338          9     0.01323
  339         11     0.02630
  340          9     0.02509
  341         12     0.02381
  342          8     0.02068
  343         12     0.02404
  344         17     0.01111
  345         17     0.03145
  346          7     0.00799
  347         13     0.02611
  348         12     0.02101
  349         17     0.02492
  350          9     0.01811
  351         12     0.01057
  352         15     0.02269
  353         12     0.01004
  354         15     0.03718
  355         18     0.02964
  356         16     0.01574
  357         15     0.03848
  358         10     0.01809
  359          8     0.00970
  360         19     0.02830
  361         15     0.02749
  362         18     0.01804
  363         12     0.01316
  364         15     0.02440
  365         13     0.01343
  366         26     0.02705
  367         22     0.01898
  368         16     0.02507
  369         12     0.04398
  370         19     0.03520
  371         19     0.02776
  372         21     0.02332
  373         16     0.02839
  374         14     0.02373
  375         20     0.03553
  376         14     0.02224
  377         17     0.02630
  378          7     0.01455
  379         13     0.03196
  380         20     0.06117
  381         11     0.01509
  382         11     0.01480
  383         14     0.03466
  384         15     0.01748
  385         16     0.02481
  386         19     0.02377
  387         23     0.04475
  388         26     0.03248
  389         18     0.04945
  390         18     0.01674
  391         13     0.01808
  392         19     0.02815
  393         18     0.02102
  394         16     0.01632
  395         13     0.02068
  396         19     0.02473
  397         26     0.02800
  398         11     0.02351
  399         13     0.03093
  400         20     0.01391
  401         17     0.02814
  402         17     0.02437
  403         24     0.03887
  404         20     0.02005
  405         23     0.01791
  406         20     0.03152
  407         20     0.05867
  408         16     0.02687
  409         16     0.04478
  410         22     0.03333
  411         17     0.01314
  412         18     0.04052
  413         17     0.04096
  414         26     0.02228
  415         20     0.03670
  416         30     0.02852
  417         24     0.05865
  418         23     0.02629
  419         22     0.01867
  420         31     0.02658
  421         18     0.02415
  422         25     0.05405
  423         23     0.01970
  424         23     0.03356
  425         25     0.03408
  426         22     0.04577
  427         16     0.03317
  428         24     0.02991
  429         18     0.03438
  430         24     0.03202
  431         21     0.03636
  432         20     0.03650
  433         18     0.02143
  434         34     0.04517
  435         28     0.03056
  436         20     0.03247
  437         22     0.02938
  438         24     0.01483
  439         29     0.04875
  440         21     0.02969
  441         27     0.02018
  442         25     0.04085
  443         25     0.01525
  444         19     0.03710
  445         34     0.03662
  446         22     0.03517
  447         21     0.03653
  448         21     0.02165
  449         27     0.03175
  450         29     0.03153
  451         28     0.03077
  452         18     0.02383
  453         25     0.01832
  454         29     0.04401
  455         31     0.02786
  456         24     0.03057
  457         41     0.06592
  458         30     0.03299
  459         28     0.02293
  460         26     0.02359
  461         25     0.01796
  462         30     0.05565
  463         26     0.02620
  464         21     0.02684
  465         35     0.01939
  466         31     0.03555
  467         27     0.01796
  468         31     0.04260
  469         32     0.04786
  470         30     0.02326
  471         26     0.05162
  472         25     0.06394
  473         25     0.02740
  474         26     0.02821
  475         18     0.02248
  476         35     0.04789
  477         41     0.04783
  478         25     0.03262
  479         20     0.03225
  480         32     0.03326
  481         20     0.03391
  482         30     0.03526
  483         35     0.03339
  484         24     0.01499
  485         29     0.03216
  486         29     0.03156
  487         38     0.02203
  488         29     0.03963
  489         24     0.03340
  490         29     0.01898
  491         36     0.03744
  492         16     0.01316
  493         19     0.01468
  494         27     0.03462
  495         32     0.01699
  496         21     0.01038
  497         23     0.04444
  498         28     0.02337
  499         31     0.02440
  500         27     0.01545
  501         33     0.03007
  502         39     0.06845
  503         33     0.03226
  504         34     0.03349
  505         36     0.02993
  506         31     0.02658
  507         26     0.08283
  508         32     0.01971
  509         34     0.03427
  510         33     0.04305
  511         34     0.03027
  512         34     0.01925
  513         33     0.03753
  514         34     0.02504
  515         31     0.06536
  516         33     0.03121
  517         36     0.02809
  518         32     0.03647
  519         41     0.05599
  520         27     0.02301
  521         37     0.02746
  522         43     0.03577
  523         31     0.02335
  524         39     0.04052
  525         29     0.02986
  526         27     0.03764
  527         33     0.03653
  528         33     0.02283
  529         56     0.04948
  530         31     0.05117
  531         33     0.02952
  532         34     0.04627
  533         39     0.05351
  534         36     0.03442
  535         33     0.02107
  536         26     0.01634
  537         44     0.04585
  538         30     0.02219
  539         35     0.03575
  540         46     0.05276
  541         33     0.04757
  542         31     0.03538
  543         34     0.06118
  544         38     0.04394
  545         29     0.03328
  546         38     0.02903
  547         35     0.04769
  548         42     0.02507
  549         33     0.01265
  550         38     0.04373
  551         36     0.03199
  552         31     0.01716
  553         38     0.07701
  554         42     0.04240
  555         37     0.02773
  556         38     0.03823
  557         46     0.05320
  558         45     0.04856
  559         35     0.04360
  560         42     0.03899
  561         42     0.04177
  562         34     0.02089
  563         38     0.02754
  564         28     0.04220
  565         35     0.02820
  566         43     0.03559
  567         45     0.04284
  568         42     0.04247
  569         33     0.03327
  570         41     0.02925
  571         55     0.06255
  572         44     0.04589
  573         38     0.04494
  574         48     0.06263
  575         40     0.04168
  576         54     0.03400
  577         45     0.04742
  578         54     0.04957
  579         44     0.04092
  580         53     0.02975
  581         40     0.03439
  582         54     0.02479
  583         47     0.06194
  584         41     0.02980
  585         38     0.02696
  586         35     0.04042
  587         44     0.04148
  588         51     0.05449
  589         39     0.04122
  590         44     0.02659
  591         44     0.04988
  592         46     0.04040
  593         38     0.03223
  594         48     0.02737
  595         45     0.03557
  596         42     0.02822
  597         45     0.03073
  598         45     0.04004
  599         44     0.03523
  600         39     0.02578
  601         46     0.02465
  602         45     0.03134
  603         46     0.03578
  604         47     0.03186
  605         58     0.03883
  606         37     0.03334
  607         50     0.03630
  608         46     0.02736
  609         51     0.03535
  610         40     0.02109
  611         39     0.03558
  612         47     0.03905
  613         50     0.06885
  614         55     0.03653
  615         46     0.02329
  616         49     0.06410
  617         53     0.05772
  618         53     0.03762
  619         32     0.03797
  620         54     0.05188
  621         46     0.03381
  622         46     0.03461
  623         40     0.02299
  624         48     0.04187
  625         58     0.04353
  626         56     0.04704
  627         59     0.02408
  628         60     0.03049
  629         42     0.02427
  630         45     0.03384
  631         42     0.02714
  632         52     0.03981
  633         52     0.04437
  634         41     0.04450
  635         52     0.04043
  636         60     0.03213
  637         49     0.02310
  638         43     0.02170
  639         46     0.03249
  640         48     0.02530
  641         50     0.05098
  642         47     0.10340
  643         54     0.07229
  644         50     0.06223
  645         46     0.04250
  646         47     0.03426
  647         44     0.02417
  648         58     0.02349
  649         40     0.02935
  650         51     0.03603
  651         55     0.05167
  652         61     0.04393
  653         49     0.05013
  654         54     0.03785
  655         61     0.07430
  656         58     0.04202
  657         52     0.03701
  658         44     0.02700
  659         46     0.04359
  660         53     0.04313
  661         42     0.02481
  662         46     0.03149
  663         62     0.03294
  664         47     0.03740
  665         46     0.03839
  666         55     0.05201
  667         60     0.03329
  668         60     0.04596
  669         47     0.03563
  670         53     0.03599
  671         52     0.03433
  672         55     0.03117
  673         62     0.06023
  674         69     0.03807
  675         43     0.04012
  676         52     0.03821
  677         48     0.03410
  678         60     0.04686
  679         50     0.04039
  680         59     0.02259
  681         51     0.03703
  682         53     0.03622
  683         49     0.02476
  684         65     0.04296
  685         56     0.04255
  686         57     0.03631
  687         37     0.03795
  688         55     0.04298
  689         65     0.05595
  690         61     0.02533
  691         58     0.02676
  692         45     0.01918
  693         55     0.03390
  694         65     0.03020
  695         67     0.04946
  696         46     0.02919
  697         47     0.04287
  698         51     0.03756
  699         48     0.02731
  700         53     0.05537
  701         56     0.02423
  702         50     0.03954
  703         67     0.03713
  704         53     0.03694
  705         62     0.05334
  706         63     0.04772
  707         57     0.03446
  708         47     0.03772
  709         54     0.03831
  710         49     0.02344
  711         51     0.05058
  712         58     0.04140
  713         54     0.03821
  714         58     0.03187
  715         56     0.03882
  716         50     0.08775
  717         47     0.05016
  718         55     0.04049
  719         68     0.04031
  720         41     0.02715
  721         56     0.03124
  722         51     0.03068
  723         45     0.04165
  724         63     0.05484
  725         52     0.05166
  726         48     0.03952
  727         58     0.02312
  728         52     0.02562
  729         50     0.04648
  730         54     0.03314
  731         53     0.05162
  732         50     0.05829
  733         62     0.02990
  734         63     0.03895
  735         66     0.03293
  736         58     0.04010
  737         55     0.03204
  738         71     0.03767
  739         61     0.03485
  740         45     0.01678
  741         60     0.04269
  742         54     0.02881
  743         51     0.03631
  744         58     0.04730
  745         62     0.04954
  746         48     0.03863
  747         55     0.02883
  748         57     0.03024
  749         54     0.03519
  750         64     0.03254
  751         53     0.03272
  752         48     0.03020
  753         56     0.05858
  754         57     0.02703
  755         57     0.03224
  756         57     0.03977
  757         51     0.03792
  758         51     0.02899
  759         51     0.03928
  760         51     0.02734
  761         47     0.03178
  762         60     0.05823
  763         56     0.03907
  764         56     0.03349
  765         54     0.03868
  766         50     0.03416
  767         63     0.02447
  768         51     0.03490
  769         63     0.03864
  770         59     0.04853
  771         58     0.03057
  772         45     0.02944
  773         56     0.06016
  774         65     0.04325
  775         52     0.02287
  776         44     0.02318
  777         57     0.06323
  778         61     0.03010
  779         67     0.04745
  780         72     0.03331
  781         59     0.03251
  782         62     0.05803
  783         34     0.03517
  784         56     0.02760
  785         51     0.02737
  786         58     0.02852
  787         51     0.02314
  788         67     0.03547
  789         45     0.03479
  790         55     0.03066
  791         38     0.02582
  792         61     0.03347
  793         43     0.02887
  794         39     0.01211
  795         52     0.03343
  796         64     0.04972
  797         49     0.04000
  798         44     0.02980
  799         37     0.03357
  800         58     0.04312
  801         50     0.02857
  802         33     0.03153
  803         52     0.03965
  804         71     0.03481
  805         47     0.04417
  806         51     0.03733
  807         59     0.03576
  808         54     0.02941
  809         55     0.02162
  810         49     0.04181
  811         49     0.03388
  812         43     0.02298
  813         55     0.04345
  814         52     0.02599
  815         50     0.03118
  816         59     0.05054
  817         46     0.02156
  818         54     0.04299
  819         57     0.03018
  820         53     0.04562
  821         66     0.04408
  822         47     0.02448
  823         57     0.03066
  824         54     0.04492
  825         43     0.03210
  826         54     0.03909
  827         64     0.05588
  828         53     0.03708
  829         77     0.03203
  830         49     0.02222
  831         56     0.03256
  832         39     0.02999
  833         58     0.06347
  834         50     0.03808
  835         46     0.02952
  836         57     0.03980
  837         58     0.05550
  838         56     0.02355
  839         55     0.03160
  840         59     0.03972
  841         70     0.02595
  842         58     0.04541
  843         52     0.02224
  844         50     0.03852
  845         54     0.03264
  846         52     0.03877
  847         49     0.02454
  848         52     0.03004
  849         43     0.01887
  850         55     0.04685
  851         49     0.03500
  852         66     0.03957
  853         44     0.02951
  854         70     0.04882
  855         55     0.02131
  856         52     0.03161
  857         43     0.03761
  858         51     0.04613
  859         60     0.03793
  860         53     0.03015
  861         55     0.04142
  862         51     0.02483
  863         51     0.03297
  864         45     0.02343
  865         49     0.03423
  866         42     0.03258
  867         54     0.02501
  868         39     0.01908
  869         50     0.02751
  870         55     0.03630
  871         51     0.04794
  872         44     0.04306
  873         43     0.03767
  874         46     0.03110
  875         48     0.03266
  876         53     0.03893
  877         47     0.02751
  878         37     0.02225
  879         52     0.03269
  880         48     0.03729
  881         53     0.03269
  882         46     0.02469
  883         47     0.03579
  884         54     0.03610
  885         59     0.03126
  886         51     0.03295
  887         40     0.02217
  888         54     0.02150
  889         54     0.04573
  890         49     0.03204
  891         47     0.02958
  892         53     0.03047
  893         68     0.05547
  894         52     0.02867
  895         63     0.02546
  896         51     0.04205
  897         57     0.04391
  898         53     0.04444
  899         57     0.02501
  900         66     0.04044
  901         50     0.03143
  902         50     0.01500
  903         41     0.02033
  904         58     0.04227
  905         42     0.01702
  906         47     0.03751
  907         66     0.03760
  908         50     0.02550
  909         47     0.02583
  910         54     0.03956
  911         57     0.02825
  912         49     0.04772
  913         53     0.02227
  914         53     0.02527
  915         38     0.03415
  916         41     0.03505
  917         35     0.02012
  918         41     0.02140
  919         47     0.02873
  920         44     0.04514
  921         45     0.02910
  922         43     0.02606
  923         49     0.01689
  924         46     0.03263
  925         43     0.02389
  926         39     0.02555
  927         48     0.02456
  928         56     0.04467
  929         42     0.02764
  930         62     0.02806
  931         35     0.02036
  932         45     0.01862
  933         60     0.03461
  934         41     0.03153
  935         48     0.03697
  936         49     0.03929
  937         47     0.02522
  938         40     0.02003
  939         62     0.03640
  940         42     0.01918
  941         51     0.03383
  942         53     0.03871
  943         52     0.03335
  944         46     0.02854
  945         49     0.04018
  946         56     0.02301
  947         48     0.04427
  948         52     0.04225
  949         52     0.03880
  950         54     0.03602
  951         53     0.02141
  952         63     0.03477
  953         35     0.02522
  954         57     0.04159
  955         54     0.02711
  956         47     0.03539
  957         42     0.03122
  958         45     0.03461
  959         51     0.03421
  960         43     0.03254
  961         42     0.03251
  962         49     0.02952
  963         45     0.02251
  964         52     0.03134
  965         30     0.01801
  966         43     0.03311
  967         49     0.03044
  968         52     0.02994
  969         53     0.04412
  970         47     0.02447
  971         53     0.03129
  972         49     0.02669
  973         51     0.04680
  974         45     0.03239
  975         43     0.02048
  976         47     0.02546
  977         40     0.02370
  978         38     0.03410
  979         52     0.01954
  980         43     0.03674
  981         51     0.03273
  982         37     0.01937
  983         39     0.02037
  984         42     0.03034
  985         43     0.03363
  986         37     0.01714
  987         32     0.02044
  988         36     0.01427
  989         41     0.02278
  990         50     0.02757
  991         36     0.01491
  992         29     0.02929
  993         50     0.02851
  994         41     0.02407
  995         51     0.01988
  996         40     0.04006
  997         34     0.01964
  998         44     0.01490
  999         59     0.02141
 1000         48     0.02996
 1001         39     0.01748
 1002         42     0.02577
 1003         38     0.01787
 1004         32     0.02842
 1005         31     0.02346
 1006         44     0.01907
 1007         33     0.01697
 1008         38     0.02291
 1009         40     0.02800
 1010         37     0.01828
 1011         42     0.03057
 1012         31     0.02169
 1013         44     0.02352
 1014         41     0.02413
 1015         30     0.02437
 1016         37     0.02276
 1017         42     0.02277
 1018         40     0.02394
 1019         47     0.02813
 1020         30     0.01696
 1021         38     0.03032
 1022         29     0.01670
 1023         41     0.02451
 1024         26     0.02623
 1025         29     0.01383
 1026         31     0.02319
 1027         50     0.01935
 1028         49     0.02645
 1029         43     0.02674
 1030         44     0.02097
 1031         43     0.02595
 1032         41     0.02429
 1033         40     0.02272
 1034         32     0.02330
 1035         34     0.01918
 1036         30     0.01753
 1037         42     0.03356
 1038         29     0.01959
 1039         30     0.01597
 1040         32     0.02635
 1041         36     0.02293
 1042         38     0.02138
 1043         33     0.02987
 1044         38     0.02224
 1045         21     0.02569
 1046         38     0.02749
 1047         37     0.02842
 1048         36     0.02925
 1049         25     0.02510
 1050         34     0.02709
 1051         33     0.03380
 1052         30     0.02199
 1053         32     0.02053
 1054         44     0.01666
 1055         31     0.02340
 1056         38     0.01392
 1057         36     0.04135
 1058         31     0.03090
 1059         44     0.02671
 1060         35     0.02142
 1061         36     0.02856
 1062         43     0.02010
 1063         34     0.01872
 1064         24     0.02317
 1065         24     0.01633
 1066         26     0.01753
 1067         32     0.02010
 1068         27     0.01995
 1069         29     0.02159
 1070         38     0.02904
 1071         43     0.04061
 1072         34     0.02383
 1073         25     0.02748
 1074         31     0.01138
 1075         34     0.02245
 1076         33     0.02362
 1077         48     0.03437
 1078         40     0.02714
 1079         39     0.02871
 1080         34     0.02366
 1081         32     0.02614
 1082         33     0.02258
 1083         28     0.02832
 1084         40     0.01110
 1085         30     0.02149
 1086         37     0.02987
 1087         32     0.01817
 1088         35     0.01899
 1089         35     0.01855
 1090         30     0.01843
 1091         35     0.02836
 1092         20     0.01973
 1093         33     0.01699
 1094         28     0.01687
 1095         36     0.02164
 1096         44     0.02980
 1097         47     0.01767
 1098         32     0.03097
 1099         28     0.02170
 1100         37     0.01746
 1101         25     0.01699
 1102         35     0.01670
 1103         29     0.02342
 1104         27     0.01758
 1105         28     0.01852
 1106         29     0.02176
 1107         35     0.01292
 1108         27     0.03759
 1109         24     0.03453
 1110         38     0.02973
 1111         28     0.01705
 1112         27     0.01568
 1113         42     0.01400
 1114         24     0.01413
 1115         34     0.02113
 1116         32     0.01732
 1117         30     0.02207
 1118         37     0.03649
 1119         27     0.02294
 1120         24     0.01738
 1121         18     0.01346
 1122         26     0.02331
 1123         26     0.02058
 1124         24     0.01958
 1125         30     0.02425
 1126         35     0.02730
 1127         37     0.03852
 1128         27     0.02495
 1129         26     0.01822
 1130         31     0.02117
 1131         21     0.01447
 1132         27     0.01951
 1133         29     0.01308
 1134         32     0.02194
 1135         34     0.01949
 1136         32     0.02992
 1137         25     0.02323
 1138         28     0.02510
 1139         24     0.01426
 1140         33     0.03144
 1141         27     0.01705
 1142         25     0.04102
 1143         24     0.01698
 1144         21     0.01215
 1145         27     0.03164
 1146         27     0.01571
 1147         39     0.03270
 1148         25     0.03375
 1149         17     0.01910
 1150         24     0.01968
 1151         32     0.02362
 1152         24     0.01611
 1153         24     0.01372
 1154         29     0.01534
 1155         26     0.03462
 1156         16     0.01101
 1157         31     0.01653
 1158         29     0.01429
 1159         26     0.01862
 1160         29     0.03024
 1161         23     0.01988
 1162         23     0.01203
 1163         29     0.01710
 1164         33     0.02556
 1165         27     0.02413
 1166         17     0.01733
 1167         38     0.02202
 1168         31     0.02930
 1169         24     0.02290
 1170         29     0.01819
 1171         23     0.01306
 1172         26     0.02545
 1173         18     0.00897
 1174         25     0.02852
 1175         30     0.01925
 1176         20     0.01799
 1177         30     0.01347
 1178         20     0.01904
 1179         26     0.01246
 1180         23     0.02495
 1181         20     0.00987
 1182         30     0.00978
 1183         20     0.02180
 1184         27     0.02490
 1185         21     0.02046
 1186         16     0.00903
 1187         24     0.01624
 1188         21     0.01690
 1189         25     0.01543
 1190         30     0.01597
 1191         27     0.02175
 1192         21     0.00874
 1193         22     0.01732
 1194         20     0.01688
 1195         17     0.03022
 1196         24     0.02364
 1197         23     0.01741
 1198         20     0.01461
 1199         24     0.01905
 1200         18     0.02238
 1201         22     0.03054
 1202         18     0.01942
 1203         22     0.01411
 1204         25     0.02362
 1205         25     0.02855
 1206         24     0.02056
 1207         20     0.00990
 1208         24     0.01897
 1209         26     0.02350
 1210         26     0.02832
 1211         22     0.03789
 1212         20     0.01837
 1213         25     0.02288
 1214         25     0.03601
 1215         21     0.01852
 1216         23     0.01564
 1217         25     0.01971
 1218         16     0.01878
 1219         16     0.01109
 1220         26     0.02238
 1221         20     0.01701
 1222         27     0.01876
 1223         25     0.01725
 1224         31     0.02186
 1225         10     0.01372
 1226         21     0.01696
 1227         24     0.01206
 1228         21     0.02634
 1229         23     0.02011
 1230         22     0.01374
 1231         19     0.01355
 1232         21     0.02429
 1233         18     0.00894
 1234         21     0.02796
 1235         21     0.01562
 1236         23     0.03546
 1237         26     0.01565
 1238         24     0.01553
 1239         12     0.03424
 1240         26     0.01547
 1241         18     0.01694
 1242         25     0.02313
 1243         16     0.01156
 1244         21     0.03725
 1245         23     0.01107
 1246         13     0.00924
 1247         23     0.02856
 1248         12     0.01259
 1249         22     0.01278
 1250         18     0.02391
 1251         24     0.01772
 1252         18     0.02134
 1253         34     0.02814
 1254         25     0.01439
 1255         25     0.01484
 1256         10     0.01409
 1257         15     0.00867
 1258         27     0.01964
 1259         23     0.02273
 1260         16     0.00945
 1261         16     0.01331
 1262         16     0.00957
 1263         12     0.01942
 1264         22     0.02028
 1265         16     0.02251
 1266         19     0.03163
 1267         21     0.01979
 1268         28     0.02137
 1269         13     0.01385
 1270         18     0.02385
 1271         19     0.01578
 1272         24     0.02099
 1273         18     0.00875
 1274         12     0.02093
 1275         17     0.01741
 1276         17     0.01303
 1277         21     0.03044
 1278         12     0.02318
 1279         14     0.00749
 1280         19     0.01279
 1281         17     0.02356
 1282         15     0.01689
 1283         24     0.03454
 1284         18     0.02098
 1285         22     0.01195
 1286         14     0.00867
 1287         20     0.02049
 1288         22     0.01325
 1289         19     0.01094
 1290         23     0.02930
 1291         18     0.01236
 1292         22     0.01341
 1293         22     0.01984
 1294         13     0.00829
 1295         22     0.01208
 1296         27     0.02393
 1297         10     0.01523
 1298         20     0.01941
 1299         11     0.00697
 1300         18     0.00938
 1301         23     0.02052
 1302         22     0.02177
 1303         18     0.01023
 1304         15     0.00979
 1305          8     0.01216
 1306         16     0.01467
 1307         16     0.02295
 1308         16     0.01244
 1309         17     0.01445
 1310         22     0.01810
 1311         19     0.01747
 1312         14     0.01798
 1313         24     0.01603
 1314         22     0.02696
 1315         14     0.01237
 1316         19     0.01496
 1317         21     0.00972
 1318         21     0.02658
 1319         13     0.01267
 1320         23     0.02331
 1321         26     0.01439
 1322         17     0.01424
 1323         15     0.01476
 1324         11     0.01020
 1325         18     0.01102
 1326         20     0.01896
 1327         11     0.01056
 1328         24     0.01397
 1329          7     0.01200
 1330          6     0.01384
 1331         12     0.00932
 1332         20     0.02639
 1333         14     0.01213
 1334         13     0.01428
 1335         15     0.01526
 1336         12     0.00952
 1337         16     0.02234
 1338         18     0.01767
 1339         13     0.02676
 1340         10     0.01302
 1341         14     0.01012
 1342         15     0.01033
 1343         15     0.01275
 1344         14     0.01274
 1345         17     0.01314
 1346         14     0.01775
 1347         14     0.00783
 1348         21     0.01127
 1349         15     0.01044
 1350         20     0.01030
 1351         14     0.01226
 1352          9     0.01048
 1353         15     0.01532
 1354          8     0.01596
 1355         12     0.01206
 1356          8     0.00705
[...]
 2332          1     0.00668
 2336          1     0.00932
 2337          1     0.01371
 2338          3     0.00652
 2339          1     0.00614
 2340          2     0.00594
 2341          1     0.00592
 2342          1     0.00656
 2343          1     0.00637
 2344          2     0.00965
 2347          1     0.00628
 2348          1     0.00643
 2349          3     0.00617
 2350          2     0.00634
 2351          1     0.00606
 2352          2     0.02133
 2354          2     0.00652
 2360          1     0.00564
 2361          2     0.00996
 2362          2     0.00625
 2364          1     0.00653
 2367          2     0.00689
 2369          1     0.00609
 2370          2     0.00644
 2373          1     0.01307
 2375          2     0.00625
 2377          1     0.01395
 2379          2     0.00659
 2381          1     0.00607
 2383          1     0.00586
 2386          2     0.01568
 2387          2     0.00934
 2388          2     0.00631
 2389          3     0.01154
 2392          1     0.00622
 2394          1     0.00606
 2396          1     0.00610
 2398          2     0.00601
 2399          1     0.00660
 2400          3     0.01865
 2401          1     0.00580
 2402          1     0.01613
 2404          2     0.00545
 2405          2     0.00656
 2406          3     0.00670
 2408          2     0.01159
 2410          1     0.01389
 2411          2     0.01407
 2412          3     0.00702
 2415          2     0.00642
 2417          1     0.00609
 2418          1     0.00622
 2421          2     0.00938
 2422          1     0.01052
 2423          1     0.00919
 2424          2     0.01021
 2426          1     0.00624
 2427          1     0.00634
 2429          1     0.01173
 2430          3     0.00947
 2431          1     0.00623
 2434          1     0.00909
 2435          1     0.00675
 2437          2     0.00641
 2440          1     0.00618
 2441          1     0.00635
 2442          2     0.00668
 2447          2     0.00662
 2449          1     0.01363
 2450          1     0.00615
 2451          1     0.01609
 2452          2     0.01037
 2453          1     0.00592
 2454          4     0.00605
 2457          1     0.00577
 2458          2     0.00703
 2460          2     0.00630
 2462          2     0.00671
 2463          1     0.00662
 2464          2     0.00592
 2466          1     0.00597
 2467          3     0.00638
 2469          1     0.00605
 2471          1     0.00627
 2474          1     0.00576
 2475          2     0.00990
 2477          1     0.00685
 2480          2     0.00617
 2481          1     0.00933
 2484          2     0.01441
 2485          1     0.00587
 2487          1     0.00619
 2488          1     0.01173
 2491          1     0.00661
 2493          1     0.00598
 2494          2     0.00631
 2495          3     0.00933
 2496          1     0.00642
 2498          1     0.00592
 2505          2     0.00612
 2514          1     0.00582
 2518          1     0.00611
 2530          4     0.00616
 2531          1     0.00551
 2533          1     0.01169
 2538          1     0.01086
 2540          1     0.00594
 2541          1     0.00611
 2546          1     0.00607
 2549          1     0.00659
 2552          2     0.00628
 2555          1     0.00627
 2559          1     0.00642
 2560          2     0.01158
 2561          2     0.00559
 2562          1     0.00731
 2571          1     0.00565
 2574          1     0.00620
 2589          1     0.00619
 2593          1     0.00649
 2600          1     0.00595
 2601          2     0.01128
 2603          1     0.00570
 2606          1     0.00870
 2607          1     0.00532
 2612          1     0.01014
 2615          1     0.00520
 2619          1     0.00573
 2623          1     0.01001
 2625          1     0.01380
 2626          1     0.00581
 2628          1     0.00563
 2634          1     0.00532
 2635          1     0.00555
 2638          1     0.00554
 2641          1     0.00600
 2642          1     0.00608
 2644          1     0.00704
 2645          1     0.00651
 2646          1     0.00592
 2648          1     0.00598
 2649          1     0.01059
 2651          1     0.00551
 2655          1     0.00590
 2657          1     0.00567
 2660          1     0.01397
 2663          1     0.00883
 2669          1     0.00594
 2671          1     0.00552
 2672          1     0.00588
 2680          1     0.00999
 2689          1     0.01143
 2692          1     0.00576
 2693          1     0.00573
 2702          1     0.00596
 2703          1     0.00642
 2713          1     0.00616
 2719          1     0.00878
 2721          1     0.00603
 2723          2     0.00571
 2731          1     0.00884
 2738          1     0.00582
 2741          1     0.00920
 2742          1     0.00588
 2745          1     0.00954
 2747          1     0.00618
 2762          1     0.00972
 2777          1     0.00558
 2778          1     0.00540
 2780          1     0.01081
 2781          1     0.00574
 2783          1     0.00568
 2786          1     0.01077
 2787          1     0.00516
 2797          1     0.00607
 2800          1     0.00558
 2802          1     0.00584
 2804          1     0.00603
 2808          2     0.00603
 2817          1     0.00583
 2834          1     0.00586
 2846          2     0.01505
 2851          1     0.00546
 2855          1     0.00556
 2867          2     0.01740
 2870          1     0.00602
 2893          1     0.00593
 2906          1     0.00598
 2908          2     0.01003
 2915          1     0.00610
 2917          1     0.00610
 2930          1     0.00738
 2943          1     0.00614
 2962          1     0.00651
 2975          1     0.00632
 2992          1     0.00583
 2993          1     0.00918
 2996          1     0.00523
 2997          1     0.00537
 3001          1     0.01501
 3036          1     0.00598
 3046          1     0.00594
 3050          1     0.00541
 3052          1     0.00516
 3059          2     0.01146
 3060          1     0.00539
 3064          1     0.00601
 3067          1     0.00604
 3068          1     0.00596
 3082          1     0.01010
 3115          1     0.00626
 3159          1     0.01136
 3162          1     0.00572
 3180          1     0.00566
 3181          1     0.01287
 3227          1     0.00598
 3245          1     0.00607
 3273          1     0.00653
 3295          1     0.00606
 3296          1     0.01346
 3307          1     0.00585
 3314          1     0.00556
 3315          1     0.00604
 3324          1     0.00631
 3351          1     0.00571
 3359          1     0.00543
 3373          1     0.09033
 3377          1     0.01058
 3382          2     0.01337
 3393          1     0.01735
 3405          2     0.00577
 3419          1     0.00579
 3425          1     0.00690
 3431          1     0.00605
 3439          1     0.00628
 3460          1     0.01332
 3466          1     0.00880
 3470          1     0.00597
 3475          1     0.00606
 3492          1     0.00647
 3515          1     0.00533
 3530          1     0.00590
 3546          1     0.00591
 3547          1     0.00559
 3549          1     0.00572
 3551          1     0.00576
 3568          1     0.00566
 3573          1     0.00568
 3583          1     0.00572
 3607          1     0.00598
 3608          1     0.00938
 3613          1     0.00568
 3630          1     0.00649
 3648          1     0.00552
 3656          1     0.00541
took 2405 iterations
Trial Time:          0.08629
    0          1     0.01971
  200          1     0.00640
  204          1     0.00614
  232          1     0.00627
took 4 iterations
Trial Time:          0.00051
    0          1     0.03202
   44          1     0.01539
   61          1     0.01386
   69          1     0.01138
   71          1     0.00593
  105          1     0.00880
  107          1     0.00608
  108          1     0.00619
  126          1     0.01768
  143          1     0.00758
  146          2     0.01466
  152          1     0.01494
  153          1     0.00672
  161          1     0.00643
  167          2     0.03743
  174          1     0.01790
  183          1     0.01072
  189          1     0.00973
  195          1     0.00620
  204          1     0.02152
  205          2     0.00679
  208          1     0.00622
  209          1     0.00592
  210          1     0.00539
  211          1     0.00609
  214          2     0.00647
  218          1     0.00589
  219          1     0.01461
  225          1     0.00605
  226          1     0.00882
  229          1     0.01420
  230          1     0.00582
  234          1     0.00561
  239          1     0.00584
  240          1     0.00620
  242          1     0.00657
  247          1     0.02034
  249          1     0.00628
  253          1     0.00594
  256          1     0.00891
  258          1     0.00599
  259          2     0.00555
  264          1     0.00608
  265          1     0.00598
  267          1     0.00596
  270          2     0.01619
  271          1     0.00579
  286          1     0.00629
  296          1     0.00592
  298          4     0.01005
  299          1     0.01957
  300          1     0.01006
  301          1     0.01188
  302          1     0.00584
  303          1     0.00598
  305          1     0.00605
  306          1     0.01858
  310          1     0.00926
  313          1     0.01189
  314          1     0.01141
  315          2     0.01255
  316          1     0.01051
  317          1     0.00609
  318          1     0.00791
  319          1     0.00609
  320          2     0.01377
  323          2     0.00859
  326          1     0.00666
  327          1     0.00589
  328          1     0.00588
  329          1     0.00647
  330          1     0.00969
  332          2     0.01160
  333          1     0.00812
  338          1     0.00603
  341          2     0.01221
  342          2     0.00607
  348          3     0.00912
  352          1     0.00536
  353          1     0.00648
  354          1     0.00611
  356          1     0.00628
  358          1     0.01444
  362          3     0.01821
  364          1     0.00577
  365          1     0.00554
  366          1     0.00733
  368          2     0.01286
  369          1     0.00631
  371          1     0.00592
  373          1     0.02601
  377          2     0.01118
  378          3     0.00556
  381          1     0.01308
  382          1     0.00622
  384          1     0.00590
  385          1     0.00544
  386          2     0.00619
  388          2     0.01073
  390          2     0.00604
  391          2     0.01502
  394          1     0.00585
  395          1     0.00577
  398          1     0.00618
  399          1     0.00612
  400          1     0.00522
  403          1     0.00525
  408          1     0.00538
  409          1     0.00603
  410          2     0.00595
  415          1     0.00580
  417          1     0.00693
  418          2     0.00607
  422          2     0.03380
  423          1     0.00637
  426          2     0.01141
  428          1     0.01943
  429          3     0.00579
  431          1     0.00549
  436          3     0.00675
  439          1     0.00943
  440          1     0.00561
  441          1     0.00548
  442          1     0.00574
  445          1     0.00596
  446          3     0.00880
  448          1     0.01367
  449          2     0.01676
  451          1     0.00566
  452          2     0.00610
  453          3     0.01645
  455          2     0.01470
  459          1     0.01092
  461          1     0.00574
  462          1     0.00638
  464          1     0.00537
  467          1     0.01736
  468          2     0.00659
  470          1     0.00527
  471          1     0.00545
  473          1     0.00846
  474          1     0.00564
  477          2     0.00877
  479          2     0.01234
  482          5     0.01642
  484          1     0.00600
  485          2     0.00614
  486          3     0.01075
  487          1     0.00550
  488          1     0.00573
  489          1     0.00596
  491          2     0.00579
  492          1     0.00909
  494          1     0.01358
  496          1     0.00552
  497          1     0.00587
  500          1     0.00585
  502          2     0.00552
  503          1     0.00565
  504          1     0.00783
  509          1     0.00576
  511          1     0.00596
  513          2     0.00597
  515          1     0.00590
  517          2     0.01597
  519          2     0.01166
  520          3     0.01864
  521          2     0.00866
  522          2     0.01185
  523          1     0.00583
  527          1     0.00618
  529          1     0.00594
  530          1     0.00581
  531          1     0.00534
  532          2     0.01065
  533          1     0.00531
  534          1     0.00537
  535          2     0.00868
  536          1     0.00592
  538          1     0.00594
  543          1     0.00598
  545          1     0.00529
  546          3     0.01554
  548          1     0.00617
  551          2     0.02135
  552          3     0.00628
  553          1     0.00650
  555          1     0.01049
  556          2     0.01334
  557          1     0.00559
  558          2     0.00585
  562          1     0.00539
  565          1     0.00932
  566          1     0.00630
  568          1     0.01046
  569          1     0.00591
  573          1     0.01260
  574          1     0.01021
  575          4     0.01926
  576          1     0.00868
  578          1     0.00557
  580          3     0.01190
  581          1     0.01252
  582          2     0.00613
  583          1     0.00546
  585          1     0.00907
  586          1     0.01666
  587          1     0.00570
  588          2     0.00939
  590          2     0.00861
  591          1     0.00572
  593          1     0.00535
  594          1     0.00825
  596          1     0.00951
  597          1     0.00533
  601          1     0.00526
  602          3     0.00499
  603          1     0.00519
  604          1     0.00578
  605          1     0.00574
  606          1     0.00608
  607          2     0.00578
  611          4     0.01313
  612          3     0.00852
  613          2     0.00617
  614          1     0.00586
  616          1     0.00613
  618          1     0.00610
  623          1     0.00578
  624          1     0.01112
  626          1     0.00571
  628          1     0.00530
  630          1     0.00544
  632          1     0.00567
  633          1     0.00598
  639          3     0.00621
  643          3     0.00639
  644          1     0.00894
  645          2     0.00641
  647          1     0.00607
  648          1     0.00880
  649          2     0.01405
  651          2     0.00626
  653          2     0.01042
  654          1     0.00573
  658          2     0.03026
  659          1     0.00772
  663          1     0.00997
  664          1     0.00746
  665          1     0.03553
  666          2     0.00729
  667          1     0.00682
  669          2     0.00975
  670          1     0.00642
  671          1     0.00632
  672          1     0.00658
  673          4     0.00667
  674          1     0.01899
  676          1     0.00593
  678          1     0.00613
  680          2     0.00626
  682          2     0.00860
  686          1     0.00589
  687          1     0.00631
  689          1     0.01025
  692          3     0.00661
  693          1     0.00654
  694          1     0.00610
  700          1     0.00619
  701          1     0.01019
  702          1     0.01736
  703          1     0.00671
  704          1     0.00923
  706          2     0.00586
  707          1     0.01004
  709          1     0.00585
  711          3     0.00796
  715          2     0.00646
  716          2     0.00985
  717          1     0.00630
  720          1     0.00577
  721          1     0.00606
  722          1     0.00564
  723          1     0.00597
  726          1     0.00579
  727          1     0.00597
  728          2     0.00640
  729          1     0.00674
  730          2     0.00630
  731          2     0.00601
  732          2     0.01175
  733          2     0.00676
  734          1     0.00667
  735          2     0.01073
  736          1     0.00583
  739          2     0.00698
  741          1     0.00643
  746          1     0.00654
  747          1     0.00598
  749          2     0.00626
  750          1     0.00582
  751          1     0.00653
  753          1     0.00653
  754          1     0.00632
  756          1     0.00615
  762          1     0.00636
  763          1     0.01128
  764          1     0.00646
  765          1     0.00633
  766          1     0.00636
  767          1     0.00627
  769          1     0.00592
  770          1     0.00622
  772          1     0.00605
  775          2     0.00923
  777          1     0.00634
  778          1     0.00647
  781          1     0.00692
  783          1     0.00650
  787          2     0.01191
  788          1     0.00631
  789          1     0.00556
  792          1     0.01005
  793          1     0.00610
  794          1     0.00563
  799          1     0.00614
  804          1     0.00618
  807          1     0.00619
  809          1     0.00606
  814          1     0.00609
  815          1     0.00583
  818          1     0.00607
  819          1     0.00603
  824          1     0.00640
  828          1     0.00606
  835          1     0.00637
  836          1     0.01123
  842          1     0.01303
  844          1     0.00639
  849          1     0.00602
  850          1     0.00597
  855          1     0.00679
  866          1     0.00612
  867          1     0.01363
  872          1     0.00628
  877          1     0.01114
  878          1     0.00641
  880          1     0.00582
  881          2     0.00669
  891          1     0.00656
  895          1     0.01171
  896          1     0.00612
  897          1     0.00619
  904          1     0.01024
  907          1     0.00621
  911          1     0.00954
  917          1     0.00613
  922          1     0.01387
  925          1     0.00655
  927          2     0.01092
  943          1     0.00601
  950          1     0.00622
  951          1     0.02053
  968          1     0.01032
  972          1     0.00528
  974          1     0.00600
  975          1     0.00996
  976          1     0.00568
  978          2     0.00702
  982          1     0.00612
  985          1     0.00881
  988          2     0.00637
 1005          1     0.00617
 1012          1     0.00612
 1013          1     0.00570
 1015          1     0.00635
 1020          1     0.00595
 1023          1     0.00536
 1026          1     0.00543
 1033          1     0.00594
 1035          1     0.00556
 1039          1     0.00567
 1045          1     0.00561
 1046          1     0.00580
 1050          1     0.00564
 1057          1     0.00574
 1061          1     0.00604
 1069          2     0.00600
 1072          1     0.00936
 1076          1     0.04124
 1084          2     0.00596
 1094          1     0.00624
 1096          1     0.00632
 1107          1     0.00562
 1117          1     0.00581
 1124          1     0.00578
 1144          1     0.00581
 1146          1     0.00564
 1167          1     0.00588
 1193          1     0.00580
 1219          1     0.00639
 1274          1     0.00547
took 402 iterations
Trial Time:          0.01140
    0          1     0.02451
   71          1     0.00632
   93          1     0.00644
  174          1     0.00603
  192          1     0.00598
took 5 iterations
Trial Time:          0.00055
    0          1     0.01623
  136          1     0.00570
took 2 iterations
Trial Time:          0.00046
    0          1     0.01810
  134          1     0.00677
  226          1     0.00549
took 3 iterations
Trial Time:          0.00048
    0          1     0.01536
   64          1     0.00596
   66          1     0.00581
took 3 iterations
Trial Time:          0.00048
Average Time:        0.01431
Exiting @ tick 1757454913000 because exiting with last active thread context
