
---------- Begin Simulation Statistics ----------
final_tick                               1257439864000                       # Number of ticks from beginning of simulation (restored from checkpoints and never reset)
host_inst_rate                                  65155                       # Simulator instruction rate (inst/s)
host_mem_usage                                 703512                       # Number of bytes of host memory used
host_op_rate                                    65346                       # Simulator op (including micro ops) rate (op/s)
host_seconds                                 22049.91                       # Real time elapsed on the host
host_tick_rate                               57026992                       # Simulator tick rate (ticks/s)
sim_freq                                 1000000000000                       # Frequency of simulated ticks
sim_insts                                  1436666035                       # Number of instructions simulated
sim_ops                                    1440869790                       # Number of ops (including micro ops) simulated
sim_seconds                                  1.257440                       # Number of seconds simulated
sim_ticks                                1257439864000                       # Number of ticks simulated
system.cpu0.branchPred.BTBCorrect                   0                       # Number of correct BTB predictions (this stat may not work properly.
system.cpu0.branchPred.BTBHitPct            87.324996                       # BTB Hit Percentage
system.cpu0.branchPred.BTBHits              177006561                       # Number of BTB hits
system.cpu0.branchPred.BTBLookups           202698620                       # Number of BTB lookups
system.cpu0.branchPred.RASInCorrect                 0                       # Number of incorrect RAS predictions.
system.cpu0.branchPred.condIncorrect         13398724                       # Number of conditional branches incorrect
system.cpu0.branchPred.condPredicted        272433558                       # Number of conditional branches predicted
system.cpu0.branchPred.indirectHits          21613713                       # Number of indirect target hits.
system.cpu0.branchPred.indirectLookups       23071633                       # Number of indirect predictor lookups.
system.cpu0.branchPred.indirectMisses         1457920                       # Number of indirect misses.
system.cpu0.branchPred.lookups              345044998                       # Number of BP lookups
system.cpu0.branchPred.usedRAS                      0                       # Number of times the RAS was used to get a target.
system.cpu0.branchPredindirectMispredicted      2187764                       # Number of mispredicted indirect branches.
system.cpu0.commit.amos                       2100282                       # Number of atomic instructions committed
system.cpu0.commit.branchMispredicts          8739998                       # The number of times a branch was mispredicted
system.cpu0.commit.branches                 329548103                       # Number of branches committed
system.cpu0.commit.bw_lim_events             34590622                       # number cycles where commit BW limit reached
system.cpu0.commit.commitNonSpecStalls        6309753                       # The number of times commit has been forced to stall to communicate backwards
system.cpu0.commit.commitSquashedInsts       63526631                       # The number of squashed insts skipped by commit
system.cpu0.commit.committedInsts          1316562352                       # Number of instructions committed
system.cpu0.commit.committedOps            1318665928                       # Number of ops (including micro ops) committed
system.cpu0.commit.committed_per_cycle::samples   2337630412                       # Number of insts commited each cycle
system.cpu0.commit.committed_per_cycle::mean     0.564104                       # Number of insts commited each cycle
system.cpu0.commit.committed_per_cycle::stdev     1.304744                       # Number of insts commited each cycle
system.cpu0.commit.committed_per_cycle::underflows            0      0.00%      0.00% # Number of insts commited each cycle
system.cpu0.commit.committed_per_cycle::0   1678086594     71.79%     71.79% # Number of insts commited each cycle
system.cpu0.commit.committed_per_cycle::1    408874436     17.49%     89.28% # Number of insts commited each cycle
system.cpu0.commit.committed_per_cycle::2     85852289      3.67%     92.95% # Number of insts commited each cycle
system.cpu0.commit.committed_per_cycle::3     88440144      3.78%     96.73% # Number of insts commited each cycle
system.cpu0.commit.committed_per_cycle::4     25017103      1.07%     97.80% # Number of insts commited each cycle
system.cpu0.commit.committed_per_cycle::5      8841512      0.38%     98.18% # Number of insts commited each cycle
system.cpu0.commit.committed_per_cycle::6      3728450      0.16%     98.34% # Number of insts commited each cycle
system.cpu0.commit.committed_per_cycle::7      4199262      0.18%     98.52% # Number of insts commited each cycle
system.cpu0.commit.committed_per_cycle::8     34590622      1.48%    100.00% # Number of insts commited each cycle
system.cpu0.commit.committed_per_cycle::overflows            0      0.00%    100.00% # Number of insts commited each cycle
system.cpu0.commit.committed_per_cycle::min_value            0                       # Number of insts commited each cycle
system.cpu0.commit.committed_per_cycle::max_value            8                       # Number of insts commited each cycle
system.cpu0.commit.committed_per_cycle::total   2337630412                       # Number of insts commited each cycle
system.cpu0.commit.fp_insts                        46                       # Number of committed floating point instructions.
system.cpu0.commit.function_calls            25143826                       # Number of function calls committed.
system.cpu0.commit.int_insts               1273933830                       # Number of committed integer instructions.
system.cpu0.commit.loads                    405172889                       # Number of loads committed
system.cpu0.commit.membars                    4203732                       # Number of memory barriers committed
system.cpu0.commit.op_class_0::No_OpClass      4203738      0.32%      0.32% # Class of committed instruction
system.cpu0.commit.op_class_0::IntAlu       742071538     56.27%     56.59% # Class of committed instruction
system.cpu0.commit.op_class_0::IntMult       11831786      0.90%     57.49% # Class of committed instruction
system.cpu0.commit.op_class_0::IntDiv         2099835      0.16%     57.65% # Class of committed instruction
system.cpu0.commit.op_class_0::FloatAdd             0      0.00%     57.65% # Class of committed instruction
system.cpu0.commit.op_class_0::FloatCmp             4      0.00%     57.65% # Class of committed instruction
system.cpu0.commit.op_class_0::FloatCvt            12      0.00%     57.65% # Class of committed instruction
system.cpu0.commit.op_class_0::FloatMult            0      0.00%     57.65% # Class of committed instruction
system.cpu0.commit.op_class_0::FloatMultAcc            0      0.00%     57.65% # Class of committed instruction
system.cpu0.commit.op_class_0::FloatDiv             2      0.00%     57.65% # Class of committed instruction
system.cpu0.commit.op_class_0::FloatMisc            4      0.00%     57.65% # Class of committed instruction
system.cpu0.commit.op_class_0::FloatSqrt            0      0.00%     57.65% # Class of committed instruction
system.cpu0.commit.op_class_0::SimdAdd              0      0.00%     57.65% # Class of committed instruction
system.cpu0.commit.op_class_0::SimdAddAcc            0      0.00%     57.65% # Class of committed instruction
system.cpu0.commit.op_class_0::SimdAlu              0      0.00%     57.65% # Class of committed instruction
system.cpu0.commit.op_class_0::SimdCmp              0      0.00%     57.65% # Class of committed instruction
system.cpu0.commit.op_class_0::SimdCvt              0      0.00%     57.65% # Class of committed instruction
system.cpu0.commit.op_class_0::SimdMisc             0      0.00%     57.65% # Class of committed instruction
system.cpu0.commit.op_class_0::SimdMult             0      0.00%     57.65% # Class of committed instruction
system.cpu0.commit.op_class_0::SimdMultAcc            0      0.00%     57.65% # Class of committed instruction
system.cpu0.commit.op_class_0::SimdShift            0      0.00%     57.65% # Class of committed instruction
system.cpu0.commit.op_class_0::SimdShiftAcc            0      0.00%     57.65% # Class of committed instruction
system.cpu0.commit.op_class_0::SimdDiv              0      0.00%     57.65% # Class of committed instruction
system.cpu0.commit.op_class_0::SimdSqrt             0      0.00%     57.65% # Class of committed instruction
system.cpu0.commit.op_class_0::SimdFloatAdd            0      0.00%     57.65% # Class of committed instruction
system.cpu0.commit.op_class_0::SimdFloatAlu            0      0.00%     57.65% # Class of committed instruction
system.cpu0.commit.op_class_0::SimdFloatCmp            0      0.00%     57.65% # Class of committed instruction
system.cpu0.commit.op_class_0::SimdFloatCvt            0      0.00%     57.65% # Class of committed instruction
system.cpu0.commit.op_class_0::SimdFloatDiv            0      0.00%     57.65% # Class of committed instruction
system.cpu0.commit.op_class_0::SimdFloatMisc            0      0.00%     57.65% # Class of committed instruction
system.cpu0.commit.op_class_0::SimdFloatMult            0      0.00%     57.65% # Class of committed instruction
system.cpu0.commit.op_class_0::SimdFloatMultAcc            0      0.00%     57.65% # Class of committed instruction
system.cpu0.commit.op_class_0::SimdFloatSqrt            0      0.00%     57.65% # Class of committed instruction
system.cpu0.commit.op_class_0::SimdReduceAdd            0      0.00%     57.65% # Class of committed instruction
system.cpu0.commit.op_class_0::SimdReduceAlu            0      0.00%     57.65% # Class of committed instruction
system.cpu0.commit.op_class_0::SimdReduceCmp            0      0.00%     57.65% # Class of committed instruction
system.cpu0.commit.op_class_0::SimdFloatReduceAdd            0      0.00%     57.65% # Class of committed instruction
system.cpu0.commit.op_class_0::SimdFloatReduceCmp            0      0.00%     57.65% # Class of committed instruction
system.cpu0.commit.op_class_0::SimdAes              0      0.00%     57.65% # Class of committed instruction
system.cpu0.commit.op_class_0::SimdAesMix            0      0.00%     57.65% # Class of committed instruction
system.cpu0.commit.op_class_0::SimdSha1Hash            0      0.00%     57.65% # Class of committed instruction
system.cpu0.commit.op_class_0::SimdSha1Hash2            0      0.00%     57.65% # Class of committed instruction
system.cpu0.commit.op_class_0::SimdSha256Hash            0      0.00%     57.65% # Class of committed instruction
system.cpu0.commit.op_class_0::SimdSha256Hash2            0      0.00%     57.65% # Class of committed instruction
system.cpu0.commit.op_class_0::SimdShaSigma2            0      0.00%     57.65% # Class of committed instruction
system.cpu0.commit.op_class_0::SimdShaSigma3            0      0.00%     57.65% # Class of committed instruction
system.cpu0.commit.op_class_0::SimdPredAlu            0      0.00%     57.65% # Class of committed instruction
system.cpu0.commit.op_class_0::MemRead      407273163     30.89%     88.53% # Class of committed instruction
system.cpu0.commit.op_class_0::MemWrite     151185822     11.47%    100.00% # Class of committed instruction
system.cpu0.commit.op_class_0::FloatMemRead            8      0.00%    100.00% # Class of committed instruction
system.cpu0.commit.op_class_0::FloatMemWrite           16      0.00%    100.00% # Class of committed instruction
system.cpu0.commit.op_class_0::IprAccess            0      0.00%    100.00% # Class of committed instruction
system.cpu0.commit.op_class_0::InstPrefetch            0      0.00%    100.00% # Class of committed instruction
system.cpu0.commit.op_class_0::total       1318665928                       # Class of committed instruction
system.cpu0.commit.refs                     558459009                       # Number of memory references committed
system.cpu0.commit.swp_count                        0                       # Number of s/w prefetches committed
system.cpu0.commit.vec_insts                        0                       # Number of committed Vector instructions.
system.cpu0.committedInsts                 1316562352                       # Number of Instructions Simulated
system.cpu0.committedOps                   1318665928                       # Number of Ops (including micro ops) Simulated
system.cpu0.cpi                              1.906545                       # CPI: Cycles Per Instruction
system.cpu0.cpi_total                        1.906545                       # CPI: Total CPI of All Threads
system.cpu0.decode.BlockedCycles            414968507                       # Number of cycles decode is blocked
system.cpu0.decode.BranchMispred              4710770                       # Number of times decode detected a branch misprediction
system.cpu0.decode.BranchResolved           176156607                       # Number of times decode resolved a branch
system.cpu0.decode.DecodedInsts            1403824188                       # Number of instructions handled by decode
system.cpu0.decode.IdleCycles               944574013                       # Number of cycles decode is idle
system.cpu0.decode.RunCycles                977011590                       # Number of cycles decode is running
system.cpu0.decode.SquashCycles               8751866                       # Number of cycles decode is squashing
system.cpu0.decode.SquashedInsts              8176857                       # Number of squashed instructions handled by decode
system.cpu0.decode.UnblockCycles              5813648                       # Number of cycles decode is unblocking
system.cpu0.dtb.accesses                            0                       # DTB accesses
system.cpu0.dtb.hits                                0                       # DTB hits
system.cpu0.dtb.misses                              0                       # DTB misses
system.cpu0.dtb.read_accesses                       0                       # DTB read accesses
system.cpu0.dtb.read_hits                           0                       # DTB read hits
system.cpu0.dtb.read_misses                         0                       # DTB read misses
system.cpu0.dtb.write_accesses                      0                       # DTB write accesses
system.cpu0.dtb.write_hits                          0                       # DTB write hits
system.cpu0.dtb.write_misses                        0                       # DTB write misses
system.cpu0.fetch.Branches                  345044998                       # Number of branches that fetch encountered
system.cpu0.fetch.CacheLines                248243766                       # Number of cache lines fetched
system.cpu0.fetch.Cycles                   1401766600                       # Number of cycles fetch has run and was not squashing or blocked
system.cpu0.fetch.IcacheSquashes              5017521                       # Number of outstanding Icache misses that were squashed
system.cpu0.fetch.IcacheWaitRetryStallCycles          239                       # Number of stall cycles due to full MSHR
system.cpu0.fetch.Insts                    1420913112                       # Number of instructions fetch has processed
system.cpu0.fetch.MiscStallCycles                  24                       # Number of cycles fetch has spent waiting on interrupts, or bad addresses, or out of MSHRs
system.cpu0.fetch.SquashCycles               26821184                       # Number of cycles fetch has spent squashing
system.cpu0.fetch.branchRate                 0.137463                       # Number of branch fetches per cycle
system.cpu0.fetch.icacheStallCycles         935942169                       # Number of cycles fetch is stalled on an Icache miss
system.cpu0.fetch.predictedBranches         198620274                       # Number of branches that fetch has predicted taken
system.cpu0.fetch.rate                       0.566082                       # Number of inst fetches per cycle
system.cpu0.fetch.rateDist::samples        2351119624                       # Number of instructions fetched each cycle (Total)
system.cpu0.fetch.rateDist::mean             0.605251                       # Number of instructions fetched each cycle (Total)
system.cpu0.fetch.rateDist::stdev            0.877493                       # Number of instructions fetched each cycle (Total)
system.cpu0.fetch.rateDist::underflows              0      0.00%      0.00% # Number of instructions fetched each cycle (Total)
system.cpu0.fetch.rateDist::0              1334198579     56.75%     56.75% # Number of instructions fetched each cycle (Total)
system.cpu0.fetch.rateDist::1               753912695     32.07%     88.81% # Number of instructions fetched each cycle (Total)
system.cpu0.fetch.rateDist::2               156353205      6.65%     95.46% # Number of instructions fetched each cycle (Total)
system.cpu0.fetch.rateDist::3                89877458      3.82%     99.29% # Number of instructions fetched each cycle (Total)
system.cpu0.fetch.rateDist::4                 7742697      0.33%     99.62% # Number of instructions fetched each cycle (Total)
system.cpu0.fetch.rateDist::5                 4724820      0.20%     99.82% # Number of instructions fetched each cycle (Total)
system.cpu0.fetch.rateDist::6                  104334      0.00%     99.82% # Number of instructions fetched each cycle (Total)
system.cpu0.fetch.rateDist::7                 2101576      0.09%     99.91% # Number of instructions fetched each cycle (Total)
system.cpu0.fetch.rateDist::8                 2104260      0.09%    100.00% # Number of instructions fetched each cycle (Total)
system.cpu0.fetch.rateDist::overflows               0      0.00%    100.00% # Number of instructions fetched each cycle (Total)
system.cpu0.fetch.rateDist::min_value               0                       # Number of instructions fetched each cycle (Total)
system.cpu0.fetch.rateDist::max_value               8                       # Number of instructions fetched each cycle (Total)
system.cpu0.fetch.rateDist::total          2351119624                       # Number of instructions fetched each cycle (Total)
system.cpu0.fp_regfile_reads                       40                       # number of floating regfile reads
system.cpu0.fp_regfile_writes                      23                       # number of floating regfile writes
system.cpu0.idleCycles                      158965504                       # Total number of cycles that the CPU has spent unscheduled due to idling
system.cpu0.iew.branchMispredicts             8856085                       # Number of branch mispredicts detected at execute
system.cpu0.iew.exec_branches               335885920                       # Number of branches executed
system.cpu0.iew.exec_nop                            0                       # number of nop insts executed
system.cpu0.iew.exec_rate                    0.545268                       # Inst execution rate
system.cpu0.iew.exec_refs                   586367602                       # number of memory reference insts executed
system.cpu0.iew.exec_stores                 155919525                       # Number of stores executed
system.cpu0.iew.exec_swp                            0                       # number of swp insts executed
system.cpu0.iew.iewBlockCycles              338997469                       # Number of cycles IEW is blocking
system.cpu0.iew.iewDispLoadInsts            430653887                       # Number of dispatched load instructions
system.cpu0.iew.iewDispNonSpecInsts           2106197                       # Number of dispatched non-speculative instructions
system.cpu0.iew.iewDispSquashedInsts          3214460                       # Number of squashed instructions skipped by dispatch
system.cpu0.iew.iewDispStoreInsts           158023460                       # Number of dispatched store instructions
system.cpu0.iew.iewDispatchedInsts         1382123770                       # Number of instructions dispatched to IQ
system.cpu0.iew.iewExecLoadInsts            430448077                       # Number of load instructions executed
system.cpu0.iew.iewExecSquashedInsts          8979314                       # Number of squashed instructions skipped in execute
system.cpu0.iew.iewExecutedInsts           1368669365                       # Number of executed instructions
system.cpu0.iew.iewIQFullEvents               1546876                       # Number of times the IQ has become full, causing a stall
system.cpu0.iew.iewIdleCycles                       0                       # Number of cycles IEW is idle
system.cpu0.iew.iewLSQFullEvents             11474458                       # Number of times the LSQ has become full, causing a stall
system.cpu0.iew.iewSquashCycles               8751866                       # Number of cycles IEW is squashing
system.cpu0.iew.iewUnblockCycles             15593748                       # Number of cycles IEW is unblocking
system.cpu0.iew.lsq.thread0.blockedLoads            0                       # Number of blocked loads due to partial load-store forwarding
system.cpu0.iew.lsq.thread0.cacheBlocked       157535                       # Number of times an access to memory failed due to the cache being blocked
system.cpu0.iew.lsq.thread0.forwLoads        19821403                       # Number of loads that had data forwarded from stores
system.cpu0.iew.lsq.thread0.ignoredResponses        32314                       # Number of memory responses ignored because the instruction is squashed
system.cpu0.iew.lsq.thread0.invAddrLoads            0                       # Number of loads ignored due to an invalid address
system.cpu0.iew.lsq.thread0.invAddrSwpfs            0                       # Number of software prefetches ignored due to an invalid address
system.cpu0.iew.lsq.thread0.memOrderViolation        12269                       # Number of memory ordering violations
system.cpu0.iew.lsq.thread0.rescheduledLoads      4780200                       # Number of loads that were rescheduled
system.cpu0.iew.lsq.thread0.squashedLoads     25480998                       # Number of loads squashed
system.cpu0.iew.lsq.thread0.squashedStores      4737340                       # Number of stores squashed
system.cpu0.iew.memOrderViolationEvents         12269                       # Number of memory order violations
system.cpu0.iew.predictedNotTakenIncorrect       723003                       # Number of branches that were predicted not taken incorrectly
system.cpu0.iew.predictedTakenIncorrect       8133082                       # Number of branches that were predicted taken incorrectly
system.cpu0.iew.wb_consumers                573809205                       # num instructions consuming a value
system.cpu0.iew.wb_count                   1357498124                       # cumulative count of insts written-back
system.cpu0.iew.wb_fanout                    0.902423                       # average fanout of values written-back
system.cpu0.iew.wb_producers                517818448                       # num instructions producing a value
system.cpu0.iew.wb_rate                      0.540818                       # insts written-back per cycle
system.cpu0.iew.wb_sent                    1357564762                       # cumulative count of insts sent to commit
system.cpu0.int_regfile_reads              1679419516                       # number of integer regfile reads
system.cpu0.int_regfile_writes              875376885                       # number of integer regfile writes
system.cpu0.ipc                              0.524509                       # IPC: Instructions Per Cycle
system.cpu0.ipc_total                        0.524509                       # IPC: Total IPC of All Threads
system.cpu0.iq.FU_type_0::No_OpClass          4205600      0.31%      0.31% # Type of FU issued
system.cpu0.iq.FU_type_0::IntAlu            768938331     55.82%     56.12% # Type of FU issued
system.cpu0.iq.FU_type_0::IntMult            11832994      0.86%     56.98% # Type of FU issued
system.cpu0.iq.FU_type_0::IntDiv              2100427      0.15%     57.13% # Type of FU issued
system.cpu0.iq.FU_type_0::FloatAdd                  0      0.00%     57.13% # Type of FU issued
system.cpu0.iq.FU_type_0::FloatCmp                  4      0.00%     57.13% # Type of FU issued
system.cpu0.iq.FU_type_0::FloatCvt                 12      0.00%     57.13% # Type of FU issued
system.cpu0.iq.FU_type_0::FloatMult                 0      0.00%     57.13% # Type of FU issued
system.cpu0.iq.FU_type_0::FloatMultAcc              0      0.00%     57.13% # Type of FU issued
system.cpu0.iq.FU_type_0::FloatDiv                  2      0.00%     57.13% # Type of FU issued
system.cpu0.iq.FU_type_0::FloatMisc                 4      0.00%     57.13% # Type of FU issued
system.cpu0.iq.FU_type_0::FloatSqrt                 0      0.00%     57.13% # Type of FU issued
system.cpu0.iq.FU_type_0::SimdAdd                   0      0.00%     57.13% # Type of FU issued
system.cpu0.iq.FU_type_0::SimdAddAcc                0      0.00%     57.13% # Type of FU issued
system.cpu0.iq.FU_type_0::SimdAlu                   0      0.00%     57.13% # Type of FU issued
system.cpu0.iq.FU_type_0::SimdCmp                   0      0.00%     57.13% # Type of FU issued
system.cpu0.iq.FU_type_0::SimdCvt                   0      0.00%     57.13% # Type of FU issued
system.cpu0.iq.FU_type_0::SimdMisc                  0      0.00%     57.13% # Type of FU issued
system.cpu0.iq.FU_type_0::SimdMult                  0      0.00%     57.13% # Type of FU issued
system.cpu0.iq.FU_type_0::SimdMultAcc               0      0.00%     57.13% # Type of FU issued
system.cpu0.iq.FU_type_0::SimdShift                 0      0.00%     57.13% # Type of FU issued
system.cpu0.iq.FU_type_0::SimdShiftAcc              0      0.00%     57.13% # Type of FU issued
system.cpu0.iq.FU_type_0::SimdDiv                   0      0.00%     57.13% # Type of FU issued
system.cpu0.iq.FU_type_0::SimdSqrt                  0      0.00%     57.13% # Type of FU issued
system.cpu0.iq.FU_type_0::SimdFloatAdd              0      0.00%     57.13% # Type of FU issued
system.cpu0.iq.FU_type_0::SimdFloatAlu              0      0.00%     57.13% # Type of FU issued
system.cpu0.iq.FU_type_0::SimdFloatCmp              0      0.00%     57.13% # Type of FU issued
system.cpu0.iq.FU_type_0::SimdFloatCvt              0      0.00%     57.13% # Type of FU issued
system.cpu0.iq.FU_type_0::SimdFloatDiv              0      0.00%     57.13% # Type of FU issued
system.cpu0.iq.FU_type_0::SimdFloatMisc             0      0.00%     57.13% # Type of FU issued
system.cpu0.iq.FU_type_0::SimdFloatMult             0      0.00%     57.13% # Type of FU issued
system.cpu0.iq.FU_type_0::SimdFloatMultAcc            0      0.00%     57.13% # Type of FU issued
system.cpu0.iq.FU_type_0::SimdFloatSqrt             0      0.00%     57.13% # Type of FU issued
system.cpu0.iq.FU_type_0::SimdReduceAdd             0      0.00%     57.13% # Type of FU issued
system.cpu0.iq.FU_type_0::SimdReduceAlu             0      0.00%     57.13% # Type of FU issued
system.cpu0.iq.FU_type_0::SimdReduceCmp             0      0.00%     57.13% # Type of FU issued
system.cpu0.iq.FU_type_0::SimdFloatReduceAdd            0      0.00%     57.13% # Type of FU issued
system.cpu0.iq.FU_type_0::SimdFloatReduceCmp            0      0.00%     57.13% # Type of FU issued
system.cpu0.iq.FU_type_0::SimdAes                   0      0.00%     57.13% # Type of FU issued
system.cpu0.iq.FU_type_0::SimdAesMix                0      0.00%     57.13% # Type of FU issued
system.cpu0.iq.FU_type_0::SimdSha1Hash              0      0.00%     57.13% # Type of FU issued
system.cpu0.iq.FU_type_0::SimdSha1Hash2             0      0.00%     57.13% # Type of FU issued
system.cpu0.iq.FU_type_0::SimdSha256Hash            0      0.00%     57.13% # Type of FU issued
system.cpu0.iq.FU_type_0::SimdSha256Hash2            0      0.00%     57.13% # Type of FU issued
system.cpu0.iq.FU_type_0::SimdShaSigma2             0      0.00%     57.13% # Type of FU issued
system.cpu0.iq.FU_type_0::SimdShaSigma3             0      0.00%     57.13% # Type of FU issued
system.cpu0.iq.FU_type_0::SimdPredAlu               0      0.00%     57.13% # Type of FU issued
system.cpu0.iq.FU_type_0::MemRead           435064891     31.58%     88.71% # Type of FU issued
system.cpu0.iq.FU_type_0::MemWrite          155506390     11.29%    100.00% # Type of FU issued
system.cpu0.iq.FU_type_0::FloatMemRead              9      0.00%    100.00% # Type of FU issued
system.cpu0.iq.FU_type_0::FloatMemWrite            16      0.00%    100.00% # Type of FU issued
system.cpu0.iq.FU_type_0::IprAccess                 0      0.00%    100.00% # Type of FU issued
system.cpu0.iq.FU_type_0::InstPrefetch              0      0.00%    100.00% # Type of FU issued
system.cpu0.iq.FU_type_0::total            1377648680                       # Type of FU issued
system.cpu0.iq.fp_alu_accesses                     49                       # Number of floating point alu accesses
system.cpu0.iq.fp_inst_queue_reads                 96                       # Number of floating instruction queue reads
system.cpu0.iq.fp_inst_queue_wakeup_accesses           47                       # Number of floating instruction queue wakeup accesses
system.cpu0.iq.fp_inst_queue_writes                64                       # Number of floating instruction queue writes
system.cpu0.iq.fu_busy_cnt                    2679523                       # FU busy when requested
system.cpu0.iq.fu_busy_rate                  0.001945                       # FU busy rate (busy events/executed inst)
system.cpu0.iq.fu_full::No_OpClass                  0      0.00%      0.00% # attempts to use FU when none available
system.cpu0.iq.fu_full::IntAlu                 400147     14.93%     14.93% # attempts to use FU when none available
system.cpu0.iq.fu_full::IntMult                     0      0.00%     14.93% # attempts to use FU when none available
system.cpu0.iq.fu_full::IntDiv                      0      0.00%     14.93% # attempts to use FU when none available
system.cpu0.iq.fu_full::FloatAdd                    0      0.00%     14.93% # attempts to use FU when none available
system.cpu0.iq.fu_full::FloatCmp                    0      0.00%     14.93% # attempts to use FU when none available
system.cpu0.iq.fu_full::FloatCvt                    0      0.00%     14.93% # attempts to use FU when none available
system.cpu0.iq.fu_full::FloatMult                   0      0.00%     14.93% # attempts to use FU when none available
system.cpu0.iq.fu_full::FloatMultAcc                0      0.00%     14.93% # attempts to use FU when none available
system.cpu0.iq.fu_full::FloatDiv                    0      0.00%     14.93% # attempts to use FU when none available
system.cpu0.iq.fu_full::FloatMisc                   0      0.00%     14.93% # attempts to use FU when none available
system.cpu0.iq.fu_full::FloatSqrt                   0      0.00%     14.93% # attempts to use FU when none available
system.cpu0.iq.fu_full::SimdAdd                     0      0.00%     14.93% # attempts to use FU when none available
system.cpu0.iq.fu_full::SimdAddAcc                  0      0.00%     14.93% # attempts to use FU when none available
system.cpu0.iq.fu_full::SimdAlu                     0      0.00%     14.93% # attempts to use FU when none available
system.cpu0.iq.fu_full::SimdCmp                     0      0.00%     14.93% # attempts to use FU when none available
system.cpu0.iq.fu_full::SimdCvt                     0      0.00%     14.93% # attempts to use FU when none available
system.cpu0.iq.fu_full::SimdMisc                    0      0.00%     14.93% # attempts to use FU when none available
system.cpu0.iq.fu_full::SimdMult                    0      0.00%     14.93% # attempts to use FU when none available
system.cpu0.iq.fu_full::SimdMultAcc                 0      0.00%     14.93% # attempts to use FU when none available
system.cpu0.iq.fu_full::SimdShift                   0      0.00%     14.93% # attempts to use FU when none available
system.cpu0.iq.fu_full::SimdShiftAcc                0      0.00%     14.93% # attempts to use FU when none available
system.cpu0.iq.fu_full::SimdDiv                     0      0.00%     14.93% # attempts to use FU when none available
system.cpu0.iq.fu_full::SimdSqrt                    0      0.00%     14.93% # attempts to use FU when none available
system.cpu0.iq.fu_full::SimdFloatAdd                0      0.00%     14.93% # attempts to use FU when none available
system.cpu0.iq.fu_full::SimdFloatAlu                0      0.00%     14.93% # attempts to use FU when none available
system.cpu0.iq.fu_full::SimdFloatCmp                0      0.00%     14.93% # attempts to use FU when none available
system.cpu0.iq.fu_full::SimdFloatCvt                0      0.00%     14.93% # attempts to use FU when none available
system.cpu0.iq.fu_full::SimdFloatDiv                0      0.00%     14.93% # attempts to use FU when none available
system.cpu0.iq.fu_full::SimdFloatMisc               0      0.00%     14.93% # attempts to use FU when none available
system.cpu0.iq.fu_full::SimdFloatMult               0      0.00%     14.93% # attempts to use FU when none available
system.cpu0.iq.fu_full::SimdFloatMultAcc            0      0.00%     14.93% # attempts to use FU when none available
system.cpu0.iq.fu_full::SimdFloatSqrt               0      0.00%     14.93% # attempts to use FU when none available
system.cpu0.iq.fu_full::SimdReduceAdd               0      0.00%     14.93% # attempts to use FU when none available
system.cpu0.iq.fu_full::SimdReduceAlu               0      0.00%     14.93% # attempts to use FU when none available
system.cpu0.iq.fu_full::SimdReduceCmp               0      0.00%     14.93% # attempts to use FU when none available
system.cpu0.iq.fu_full::SimdFloatReduceAdd            0      0.00%     14.93% # attempts to use FU when none available
system.cpu0.iq.fu_full::SimdFloatReduceCmp            0      0.00%     14.93% # attempts to use FU when none available
system.cpu0.iq.fu_full::SimdAes                     0      0.00%     14.93% # attempts to use FU when none available
system.cpu0.iq.fu_full::SimdAesMix                  0      0.00%     14.93% # attempts to use FU when none available
system.cpu0.iq.fu_full::SimdSha1Hash                0      0.00%     14.93% # attempts to use FU when none available
system.cpu0.iq.fu_full::SimdSha1Hash2               0      0.00%     14.93% # attempts to use FU when none available
system.cpu0.iq.fu_full::SimdSha256Hash              0      0.00%     14.93% # attempts to use FU when none available
system.cpu0.iq.fu_full::SimdSha256Hash2             0      0.00%     14.93% # attempts to use FU when none available
system.cpu0.iq.fu_full::SimdShaSigma2               0      0.00%     14.93% # attempts to use FU when none available
system.cpu0.iq.fu_full::SimdShaSigma3               0      0.00%     14.93% # attempts to use FU when none available
system.cpu0.iq.fu_full::SimdPredAlu                 0      0.00%     14.93% # attempts to use FU when none available
system.cpu0.iq.fu_full::MemRead               1911626     71.34%     86.28% # attempts to use FU when none available
system.cpu0.iq.fu_full::MemWrite               367748     13.72%    100.00% # attempts to use FU when none available
system.cpu0.iq.fu_full::FloatMemRead                0      0.00%    100.00% # attempts to use FU when none available
system.cpu0.iq.fu_full::FloatMemWrite               2      0.00%    100.00% # attempts to use FU when none available
system.cpu0.iq.fu_full::IprAccess                   0      0.00%    100.00% # attempts to use FU when none available
system.cpu0.iq.fu_full::InstPrefetch                0      0.00%    100.00% # attempts to use FU when none available
system.cpu0.iq.int_alu_accesses            1376122554                       # Number of integer alu accesses
system.cpu0.iq.int_inst_queue_reads        5109240590                       # Number of integer instruction queue reads
system.cpu0.iq.int_inst_queue_wakeup_accesses   1357498077                       # Number of integer instruction queue wakeup accesses
system.cpu0.iq.int_inst_queue_writes       1445593427                       # Number of integer instruction queue writes
system.cpu0.iq.iqInstsAdded                1375813681                       # Number of instructions added to the IQ (excludes non-spec)
system.cpu0.iq.iqInstsIssued               1377648680                       # Number of instructions issued
system.cpu0.iq.iqNonSpecInstsAdded            6310089                       # Number of non-speculative instructions added to the IQ
system.cpu0.iq.iqSquashedInstsExamined       63457838                       # Number of squashed instructions iterated over during squash; mainly for profiling
system.cpu0.iq.iqSquashedInstsIssued           144180                       # Number of squashed instructions issued
system.cpu0.iq.iqSquashedNonSpecRemoved           336                       # Number of squashed non-spec instructions that were removed
system.cpu0.iq.iqSquashedOperandsExamined     25193103                       # Number of squashed operands that are examined and possibly removed from graph
system.cpu0.iq.issued_per_cycle::samples   2351119624                       # Number of insts issued each cycle
system.cpu0.iq.issued_per_cycle::mean        0.585954                       # Number of insts issued each cycle
system.cpu0.iq.issued_per_cycle::stdev       0.801733                       # Number of insts issued each cycle
system.cpu0.iq.issued_per_cycle::underflows            0      0.00%      0.00% # Number of insts issued each cycle
system.cpu0.iq.issued_per_cycle::0         1345045311     57.21%     57.21% # Number of insts issued each cycle
system.cpu0.iq.issued_per_cycle::1          704322162     29.96%     87.17% # Number of insts issued each cycle
system.cpu0.iq.issued_per_cycle::2          250618033     10.66%     97.83% # Number of insts issued each cycle
system.cpu0.iq.issued_per_cycle::3           39475877      1.68%     99.50% # Number of insts issued each cycle
system.cpu0.iq.issued_per_cycle::4            6994929      0.30%     99.80% # Number of insts issued each cycle
system.cpu0.iq.issued_per_cycle::5            3052055      0.13%     99.93% # Number of insts issued each cycle
system.cpu0.iq.issued_per_cycle::6            1036283      0.04%     99.98% # Number of insts issued each cycle
system.cpu0.iq.issued_per_cycle::7             394660      0.02%     99.99% # Number of insts issued each cycle
system.cpu0.iq.issued_per_cycle::8             180314      0.01%    100.00% # Number of insts issued each cycle
system.cpu0.iq.issued_per_cycle::overflows            0      0.00%    100.00% # Number of insts issued each cycle
system.cpu0.iq.issued_per_cycle::min_value            0                       # Number of insts issued each cycle
system.cpu0.iq.issued_per_cycle::max_value            8                       # Number of insts issued each cycle
system.cpu0.iq.issued_per_cycle::total     2351119624                       # Number of insts issued each cycle
system.cpu0.iq.rate                          0.548845                       # Inst issue rate
system.cpu0.iq.vec_alu_accesses                     0                       # Number of vector alu accesses
system.cpu0.iq.vec_inst_queue_reads                 0                       # Number of vector instruction queue reads
system.cpu0.iq.vec_inst_queue_wakeup_accesses            0                       # Number of vector instruction queue wakeup accesses
system.cpu0.iq.vec_inst_queue_writes                0                       # Number of vector instruction queue writes
system.cpu0.itb.accesses                            0                       # DTB accesses
system.cpu0.itb.hits                                0                       # DTB hits
system.cpu0.itb.misses                              0                       # DTB misses
system.cpu0.itb.read_accesses                       0                       # DTB read accesses
system.cpu0.itb.read_hits                           0                       # DTB read hits
system.cpu0.itb.read_misses                         0                       # DTB read misses
system.cpu0.itb.write_accesses                      0                       # DTB write accesses
system.cpu0.itb.write_hits                          0                       # DTB write hits
system.cpu0.itb.write_misses                        0                       # DTB write misses
system.cpu0.memDep0.conflictingLoads         17930662                       # Number of conflicting loads.
system.cpu0.memDep0.conflictingStores         1747818                       # Number of conflicting stores.
system.cpu0.memDep0.insertedLoads           430653887                       # Number of loads inserted to the mem dependence unit.
system.cpu0.memDep0.insertedStores          158023460                       # Number of stores inserted to the mem dependence unit.
system.cpu0.misc_regfile_reads                   1893                       # number of misc regfile reads
system.cpu0.misc_regfile_writes                    22                       # number of misc regfile writes
system.cpu0.numCycles                      2510085128                       # number of cpu cycles simulated
system.cpu0.numWorkItemsCompleted                   0                       # number of work items this cpu completed
system.cpu0.numWorkItemsStarted                     0                       # number of work items this cpu started
system.cpu0.quiesceCycles                     4795099                       # Total number of cycles that CPU has spent quiesced or waiting for an interrupt
system.cpu0.rename.BlockCycles              370791096                       # Number of cycles rename is blocking
system.cpu0.rename.CommittedMaps            845205488                       # Number of HB maps that are committed
system.cpu0.rename.IQFullEvents              14584096                       # Number of times rename has blocked due to IQ full
system.cpu0.rename.IdleCycles               956403226                       # Number of cycles rename is idle
system.cpu0.rename.LQFullEvents              12794628                       # Number of times rename has blocked due to LQ full
system.cpu0.rename.ROBFullEvents                47516                       # Number of times rename has blocked due to ROB full
system.cpu0.rename.RenameLookups           1711969142                       # Number of register rename lookups that rename has made
system.cpu0.rename.RenamedInsts            1394157350                       # Number of instructions processed by rename
system.cpu0.rename.RenamedOperands          904302232                       # Number of destination operands rename has renamed
system.cpu0.rename.RunCycles                969493046                       # Number of cycles rename is running
system.cpu0.rename.SQFullEvents              17318051                       # Number of times rename has blocked due to SQ full
system.cpu0.rename.SquashCycles               8751866                       # Number of cycles rename is squashing
system.cpu0.rename.UnblockCycles             45525945                       # Number of cycles rename is unblocking
system.cpu0.rename.UndoneMaps                59096736                       # Number of HB maps that are undone due to squashing
system.cpu0.rename.fp_rename_lookups               40                       # Number of floating rename lookups
system.cpu0.rename.int_rename_lookups      1711969102                       # Number of integer rename lookups
system.cpu0.rename.serializeStallCycles        154445                       # count of cycles rename stalled for serializing inst
system.cpu0.rename.serializingInsts              5880                       # count of serializing insts renamed
system.cpu0.rename.skidInsts                 31742664                       # count of insts added to the skid buffer
system.cpu0.rename.tempSerializingInsts          5875                       # count of temporary serializing insts renamed
system.cpu0.rob.rob_reads                  3685208234                       # The number of ROB reads
system.cpu0.rob.rob_writes                 2777892687                       # The number of ROB writes
system.cpu0.timesIdled                       29805625                       # Number of times that the entire CPU went into an idle state and unscheduled itself
system.cpu0.workload.numSyscalls                 1860                       # Number of system calls
system.cpu1.branchPred.BTBCorrect                   0                       # Number of correct BTB predictions (this stat may not work properly.
system.cpu1.branchPred.BTBHitPct            82.819734                       # BTB Hit Percentage
system.cpu1.branchPred.BTBHits               20352268                       # Number of BTB hits
system.cpu1.branchPred.BTBLookups            24574177                       # Number of BTB lookups
system.cpu1.branchPred.RASInCorrect                 0                       # Number of incorrect RAS predictions.
system.cpu1.branchPred.condIncorrect          2752751                       # Number of conditional branches incorrect
system.cpu1.branchPred.condPredicted         30085348                       # Number of conditional branches predicted
system.cpu1.branchPred.indirectHits           1055545                       # Number of indirect target hits.
system.cpu1.branchPred.indirectLookups        1072195                       # Number of indirect predictor lookups.
system.cpu1.branchPred.indirectMisses           16650                       # Number of indirect misses.
system.cpu1.branchPred.lookups               34631939                       # Number of BP lookups
system.cpu1.branchPred.usedRAS                      0                       # Number of times the RAS was used to get a target.
system.cpu1.branchPredindirectMispredicted        48152                       # Number of mispredicted indirect branches.
system.cpu1.commit.amos                       2100000                       # Number of atomic instructions committed
system.cpu1.commit.branchMispredicts          1955131                       # The number of times a branch was mispredicted
system.cpu1.commit.branches                  28126327                       # Number of branches committed
system.cpu1.commit.bw_lim_events              3591307                       # number cycles where commit BW limit reached
system.cpu1.commit.commitNonSpecStalls        6300678                       # The number of times commit has been forced to stall to communicate backwards
system.cpu1.commit.commitSquashedInsts       15108857                       # The number of squashed insts skipped by commit
system.cpu1.commit.committedInsts           120103683                       # Number of instructions committed
system.cpu1.commit.committedOps             122203862                       # Number of ops (including micro ops) committed
system.cpu1.commit.committed_per_cycle::samples    438554191                       # Number of insts commited each cycle
system.cpu1.commit.committed_per_cycle::mean     0.278652                       # Number of insts commited each cycle
system.cpu1.commit.committed_per_cycle::stdev     1.034768                       # Number of insts commited each cycle
system.cpu1.commit.committed_per_cycle::underflows            0      0.00%      0.00% # Number of insts commited each cycle
system.cpu1.commit.committed_per_cycle::0    387272566     88.31%     88.31% # Number of insts commited each cycle
system.cpu1.commit.committed_per_cycle::1     25767479      5.88%     94.18% # Number of insts commited each cycle
system.cpu1.commit.committed_per_cycle::2      9348558      2.13%     96.31% # Number of insts commited each cycle
system.cpu1.commit.committed_per_cycle::3      7344705      1.67%     97.99% # Number of insts commited each cycle
system.cpu1.commit.committed_per_cycle::4      2008440      0.46%     98.45% # Number of insts commited each cycle
system.cpu1.commit.committed_per_cycle::5       722393      0.16%     98.61% # Number of insts commited each cycle
system.cpu1.commit.committed_per_cycle::6      2162230      0.49%     99.10% # Number of insts commited each cycle
system.cpu1.commit.committed_per_cycle::7       336513      0.08%     99.18% # Number of insts commited each cycle
system.cpu1.commit.committed_per_cycle::8      3591307      0.82%    100.00% # Number of insts commited each cycle
system.cpu1.commit.committed_per_cycle::overflows            0      0.00%    100.00% # Number of insts commited each cycle
system.cpu1.commit.committed_per_cycle::min_value            0                       # Number of insts commited each cycle
system.cpu1.commit.committed_per_cycle::max_value            8                       # Number of insts commited each cycle
system.cpu1.commit.committed_per_cycle::total    438554191                       # Number of insts commited each cycle
system.cpu1.commit.fp_insts                        12                       # Number of committed floating point instructions.
system.cpu1.commit.function_calls             1799029                       # Number of function calls committed.
system.cpu1.commit.int_insts                116640198                       # Number of committed integer instructions.
system.cpu1.commit.loads                     30181345                       # Number of loads committed
system.cpu1.commit.membars                    4200125                       # Number of memory barriers committed
system.cpu1.commit.op_class_0::No_OpClass      4200125      3.44%      3.44% # Class of committed instruction
system.cpu1.commit.op_class_0::IntAlu        76693707     62.76%     66.20% # Class of committed instruction
system.cpu1.commit.op_class_0::IntMult             44      0.00%     66.20% # Class of committed instruction
system.cpu1.commit.op_class_0::IntDiv              88      0.00%     66.20% # Class of committed instruction
system.cpu1.commit.op_class_0::FloatAdd             0      0.00%     66.20% # Class of committed instruction
system.cpu1.commit.op_class_0::FloatCmp             0      0.00%     66.20% # Class of committed instruction
system.cpu1.commit.op_class_0::FloatCvt             0      0.00%     66.20% # Class of committed instruction
system.cpu1.commit.op_class_0::FloatMult            0      0.00%     66.20% # Class of committed instruction
system.cpu1.commit.op_class_0::FloatMultAcc            0      0.00%     66.20% # Class of committed instruction
system.cpu1.commit.op_class_0::FloatDiv             0      0.00%     66.20% # Class of committed instruction
system.cpu1.commit.op_class_0::FloatMisc            0      0.00%     66.20% # Class of committed instruction
system.cpu1.commit.op_class_0::FloatSqrt            0      0.00%     66.20% # Class of committed instruction
system.cpu1.commit.op_class_0::SimdAdd              0      0.00%     66.20% # Class of committed instruction
system.cpu1.commit.op_class_0::SimdAddAcc            0      0.00%     66.20% # Class of committed instruction
system.cpu1.commit.op_class_0::SimdAlu              0      0.00%     66.20% # Class of committed instruction
system.cpu1.commit.op_class_0::SimdCmp              0      0.00%     66.20% # Class of committed instruction
system.cpu1.commit.op_class_0::SimdCvt              0      0.00%     66.20% # Class of committed instruction
system.cpu1.commit.op_class_0::SimdMisc             0      0.00%     66.20% # Class of committed instruction
system.cpu1.commit.op_class_0::SimdMult             0      0.00%     66.20% # Class of committed instruction
system.cpu1.commit.op_class_0::SimdMultAcc            0      0.00%     66.20% # Class of committed instruction
system.cpu1.commit.op_class_0::SimdShift            0      0.00%     66.20% # Class of committed instruction
system.cpu1.commit.op_class_0::SimdShiftAcc            0      0.00%     66.20% # Class of committed instruction
system.cpu1.commit.op_class_0::SimdDiv              0      0.00%     66.20% # Class of committed instruction
system.cpu1.commit.op_class_0::SimdSqrt             0      0.00%     66.20% # Class of committed instruction
system.cpu1.commit.op_class_0::SimdFloatAdd            0      0.00%     66.20% # Class of committed instruction
system.cpu1.commit.op_class_0::SimdFloatAlu            0      0.00%     66.20% # Class of committed instruction
system.cpu1.commit.op_class_0::SimdFloatCmp            0      0.00%     66.20% # Class of committed instruction
system.cpu1.commit.op_class_0::SimdFloatCvt            0      0.00%     66.20% # Class of committed instruction
system.cpu1.commit.op_class_0::SimdFloatDiv            0      0.00%     66.20% # Class of committed instruction
system.cpu1.commit.op_class_0::SimdFloatMisc            0      0.00%     66.20% # Class of committed instruction
system.cpu1.commit.op_class_0::SimdFloatMult            0      0.00%     66.20% # Class of committed instruction
system.cpu1.commit.op_class_0::SimdFloatMultAcc            0      0.00%     66.20% # Class of committed instruction
system.cpu1.commit.op_class_0::SimdFloatSqrt            0      0.00%     66.20% # Class of committed instruction
system.cpu1.commit.op_class_0::SimdReduceAdd            0      0.00%     66.20% # Class of committed instruction
system.cpu1.commit.op_class_0::SimdReduceAlu            0      0.00%     66.20% # Class of committed instruction
system.cpu1.commit.op_class_0::SimdReduceCmp            0      0.00%     66.20% # Class of committed instruction
system.cpu1.commit.op_class_0::SimdFloatReduceAdd            0      0.00%     66.20% # Class of committed instruction
system.cpu1.commit.op_class_0::SimdFloatReduceCmp            0      0.00%     66.20% # Class of committed instruction
system.cpu1.commit.op_class_0::SimdAes              0      0.00%     66.20% # Class of committed instruction
system.cpu1.commit.op_class_0::SimdAesMix            0      0.00%     66.20% # Class of committed instruction
system.cpu1.commit.op_class_0::SimdSha1Hash            0      0.00%     66.20% # Class of committed instruction
system.cpu1.commit.op_class_0::SimdSha1Hash2            0      0.00%     66.20% # Class of committed instruction
system.cpu1.commit.op_class_0::SimdSha256Hash            0      0.00%     66.20% # Class of committed instruction
system.cpu1.commit.op_class_0::SimdSha256Hash2            0      0.00%     66.20% # Class of committed instruction
system.cpu1.commit.op_class_0::SimdShaSigma2            0      0.00%     66.20% # Class of committed instruction
system.cpu1.commit.op_class_0::SimdShaSigma3            0      0.00%     66.20% # Class of committed instruction
system.cpu1.commit.op_class_0::SimdPredAlu            0      0.00%     66.20% # Class of committed instruction
system.cpu1.commit.op_class_0::MemRead       32281345     26.42%     92.61% # Class of committed instruction
system.cpu1.commit.op_class_0::MemWrite       9028541      7.39%    100.00% # Class of committed instruction
system.cpu1.commit.op_class_0::FloatMemRead            0      0.00%    100.00% # Class of committed instruction
system.cpu1.commit.op_class_0::FloatMemWrite           12      0.00%    100.00% # Class of committed instruction
system.cpu1.commit.op_class_0::IprAccess            0      0.00%    100.00% # Class of committed instruction
system.cpu1.commit.op_class_0::InstPrefetch            0      0.00%    100.00% # Class of committed instruction
system.cpu1.commit.op_class_0::total        122203862                       # Class of committed instruction
system.cpu1.commit.refs                      41309898                       # Number of memory references committed
system.cpu1.commit.swp_count                        0                       # Number of s/w prefetches committed
system.cpu1.commit.vec_insts                        0                       # Number of committed Vector instructions.
system.cpu1.committedInsts                  120103683                       # Number of Instructions Simulated
system.cpu1.committedOps                    122203862                       # Number of Ops (including micro ops) Simulated
system.cpu1.cpi                              3.682572                       # CPI: Cycles Per Instruction
system.cpu1.cpi_total                        3.682572                       # CPI: Total CPI of All Threads
system.cpu1.decode.BlockedCycles            344974962                       # Number of cycles decode is blocked
system.cpu1.decode.BranchMispred               875580                       # Number of times decode detected a branch misprediction
system.cpu1.decode.BranchResolved            19449826                       # Number of times decode resolved a branch
system.cpu1.decode.DecodedInsts             143960716                       # Number of instructions handled by decode
system.cpu1.decode.IdleCycles                23046252                       # Number of cycles decode is idle
system.cpu1.decode.RunCycles                 66675997                       # Number of cycles decode is running
system.cpu1.decode.SquashCycles               1956272                       # Number of cycles decode is squashing
system.cpu1.decode.SquashedInsts              2058629                       # Number of squashed instructions handled by decode
system.cpu1.decode.UnblockCycles              5056111                       # Number of cycles decode is unblocking
system.cpu1.dtb.accesses                            0                       # DTB accesses
system.cpu1.dtb.hits                                0                       # DTB hits
system.cpu1.dtb.misses                              0                       # DTB misses
system.cpu1.dtb.read_accesses                       0                       # DTB read accesses
system.cpu1.dtb.read_hits                           0                       # DTB read hits
system.cpu1.dtb.read_misses                         0                       # DTB read misses
system.cpu1.dtb.write_accesses                      0                       # DTB write accesses
system.cpu1.dtb.write_hits                          0                       # DTB write hits
system.cpu1.dtb.write_misses                        0                       # DTB write misses
system.cpu1.fetch.Branches                   34631939                       # Number of branches that fetch encountered
system.cpu1.fetch.CacheLines                 21292744                       # Number of cache lines fetched
system.cpu1.fetch.Cycles                    416020515                       # Number of cycles fetch has run and was not squashing or blocked
system.cpu1.fetch.IcacheSquashes               202753                       # Number of outstanding Icache misses that were squashed
system.cpu1.fetch.Insts                     149315755                       # Number of instructions fetch has processed
system.cpu1.fetch.MiscStallCycles                   1                       # Number of cycles fetch has spent waiting on interrupts, or bad addresses, or out of MSHRs
system.cpu1.fetch.SquashCycles                5507784                       # Number of cycles fetch has spent squashing
system.cpu1.fetch.branchRate                 0.078301                       # Number of branch fetches per cycle
system.cpu1.fetch.icacheStallCycles          22935186                       # Number of cycles fetch is stalled on an Icache miss
system.cpu1.fetch.predictedBranches          21407813                       # Number of branches that fetch has predicted taken
system.cpu1.fetch.rate                       0.337597                       # Number of inst fetches per cycle
system.cpu1.fetch.rateDist::samples         441709594                       # Number of instructions fetched each cycle (Total)
system.cpu1.fetch.rateDist::mean             0.342796                       # Number of instructions fetched each cycle (Total)
system.cpu1.fetch.rateDist::stdev            0.766282                       # Number of instructions fetched each cycle (Total)
system.cpu1.fetch.rateDist::underflows              0      0.00%      0.00% # Number of instructions fetched each cycle (Total)
system.cpu1.fetch.rateDist::0               345523764     78.22%     78.22% # Number of instructions fetched each cycle (Total)
system.cpu1.fetch.rateDist::1                60870101     13.78%     92.00% # Number of instructions fetched each cycle (Total)
system.cpu1.fetch.rateDist::2                19539436      4.42%     96.43% # Number of instructions fetched each cycle (Total)
system.cpu1.fetch.rateDist::3                12216727      2.77%     99.19% # Number of instructions fetched each cycle (Total)
system.cpu1.fetch.rateDist::4                 3044536      0.69%     99.88% # Number of instructions fetched each cycle (Total)
system.cpu1.fetch.rateDist::5                  452156      0.10%     99.99% # Number of instructions fetched each cycle (Total)
system.cpu1.fetch.rateDist::6                   62086      0.01%    100.00% # Number of instructions fetched each cycle (Total)
system.cpu1.fetch.rateDist::7                     580      0.00%    100.00% # Number of instructions fetched each cycle (Total)
system.cpu1.fetch.rateDist::8                     208      0.00%    100.00% # Number of instructions fetched each cycle (Total)
system.cpu1.fetch.rateDist::overflows               0      0.00%    100.00% # Number of instructions fetched each cycle (Total)
system.cpu1.fetch.rateDist::min_value               0                       # Number of instructions fetched each cycle (Total)
system.cpu1.fetch.rateDist::max_value               8                       # Number of instructions fetched each cycle (Total)
system.cpu1.fetch.rateDist::total           441709594                       # Number of instructions fetched each cycle (Total)
system.cpu1.fp_regfile_reads                       12                       # number of floating regfile reads
system.cpu1.idleCycles                         580884                       # Total number of cycles that the CPU has spent unscheduled due to idling
system.cpu1.iew.branchMispredicts             2048579                       # Number of branch mispredicts detected at execute
system.cpu1.iew.exec_branches                30263550                       # Number of branches executed
system.cpu1.iew.exec_nop                            0                       # number of nop insts executed
system.cpu1.iew.exec_rate                    0.299822                       # Inst execution rate
system.cpu1.iew.exec_refs                    45427369                       # number of memory reference insts executed
system.cpu1.iew.exec_stores                  11548915                       # Number of stores executed
system.cpu1.iew.exec_swp                            0                       # number of swp insts executed
system.cpu1.iew.iewBlockCycles              282396476                       # Number of cycles IEW is blocking
system.cpu1.iew.iewDispLoadInsts             34639231                       # Number of dispatched load instructions
system.cpu1.iew.iewDispNonSpecInsts           2100651                       # Number of dispatched non-speculative instructions
system.cpu1.iew.iewDispSquashedInsts          1919380                       # Number of squashed instructions skipped by dispatch
system.cpu1.iew.iewDispStoreInsts            11901562                       # Number of dispatched store instructions
system.cpu1.iew.iewDispatchedInsts          137262917                       # Number of instructions dispatched to IQ
system.cpu1.iew.iewExecLoadInsts             33878454                       # Number of load instructions executed
system.cpu1.iew.iewExecSquashedInsts          1989800                       # Number of squashed instructions skipped in execute
system.cpu1.iew.iewExecutedInsts            132608307                       # Number of executed instructions
system.cpu1.iew.iewIQFullEvents               1402452                       # Number of times the IQ has become full, causing a stall
system.cpu1.iew.iewIdleCycles                       0                       # Number of cycles IEW is idle
system.cpu1.iew.iewLSQFullEvents              9924657                       # Number of times the LSQ has become full, causing a stall
system.cpu1.iew.iewSquashCycles               1956272                       # Number of cycles IEW is squashing
system.cpu1.iew.iewUnblockCycles             13736780                       # Number of cycles IEW is unblocking
system.cpu1.iew.lsq.thread0.blockedLoads            0                       # Number of blocked loads due to partial load-store forwarding
system.cpu1.iew.lsq.thread0.cacheBlocked        71900                       # Number of times an access to memory failed due to the cache being blocked
system.cpu1.iew.lsq.thread0.forwLoads          877691                       # Number of loads that had data forwarded from stores
system.cpu1.iew.lsq.thread0.ignoredResponses        25564                       # Number of memory responses ignored because the instruction is squashed
system.cpu1.iew.lsq.thread0.invAddrLoads            0                       # Number of loads ignored due to an invalid address
system.cpu1.iew.lsq.thread0.invAddrSwpfs            0                       # Number of software prefetches ignored due to an invalid address
system.cpu1.iew.lsq.thread0.memOrderViolation         1503                       # Number of memory ordering violations
system.cpu1.iew.lsq.thread0.rescheduledLoads         8798                       # Number of loads that were rescheduled
system.cpu1.iew.lsq.thread0.squashedLoads      4457886                       # Number of loads squashed
system.cpu1.iew.lsq.thread0.squashedStores       773009                       # Number of stores squashed
system.cpu1.iew.memOrderViolationEvents          1503                       # Number of memory order violations
system.cpu1.iew.predictedNotTakenIncorrect       524095                       # Number of branches that were predicted not taken incorrectly
system.cpu1.iew.predictedTakenIncorrect       1524484                       # Number of branches that were predicted taken incorrectly
system.cpu1.iew.wb_consumers                 73757178                       # num instructions consuming a value
system.cpu1.iew.wb_count                    131136326                       # cumulative count of insts written-back
system.cpu1.iew.wb_fanout                    0.864155                       # average fanout of values written-back
system.cpu1.iew.wb_producers                 63737631                       # num instructions producing a value
system.cpu1.iew.wb_rate                      0.296494                       # insts written-back per cycle
system.cpu1.iew.wb_sent                     131188831                       # cumulative count of insts sent to commit
system.cpu1.int_regfile_reads               168304548                       # number of integer regfile reads
system.cpu1.int_regfile_writes               88275302                       # number of integer regfile writes
system.cpu1.ipc                              0.271549                       # IPC: Instructions Per Cycle
system.cpu1.ipc_total                        0.271549                       # IPC: Total IPC of All Threads
system.cpu1.iq.FU_type_0::No_OpClass          4200227      3.12%      3.12% # Type of FU issued
system.cpu1.iq.FU_type_0::IntAlu             84431537     62.73%     65.85% # Type of FU issued
system.cpu1.iq.FU_type_0::IntMult                  46      0.00%     65.85% # Type of FU issued
system.cpu1.iq.FU_type_0::IntDiv                   88      0.00%     65.85% # Type of FU issued
system.cpu1.iq.FU_type_0::FloatAdd                  0      0.00%     65.85% # Type of FU issued
system.cpu1.iq.FU_type_0::FloatCmp                  0      0.00%     65.85% # Type of FU issued
system.cpu1.iq.FU_type_0::FloatCvt                  0      0.00%     65.85% # Type of FU issued
system.cpu1.iq.FU_type_0::FloatMult                 0      0.00%     65.85% # Type of FU issued
system.cpu1.iq.FU_type_0::FloatMultAcc              0      0.00%     65.85% # Type of FU issued
system.cpu1.iq.FU_type_0::FloatDiv                  0      0.00%     65.85% # Type of FU issued
system.cpu1.iq.FU_type_0::FloatMisc                 0      0.00%     65.85% # Type of FU issued
system.cpu1.iq.FU_type_0::FloatSqrt                 0      0.00%     65.85% # Type of FU issued
system.cpu1.iq.FU_type_0::SimdAdd                   0      0.00%     65.85% # Type of FU issued
system.cpu1.iq.FU_type_0::SimdAddAcc                0      0.00%     65.85% # Type of FU issued
system.cpu1.iq.FU_type_0::SimdAlu                   0      0.00%     65.85% # Type of FU issued
system.cpu1.iq.FU_type_0::SimdCmp                   0      0.00%     65.85% # Type of FU issued
system.cpu1.iq.FU_type_0::SimdCvt                   0      0.00%     65.85% # Type of FU issued
system.cpu1.iq.FU_type_0::SimdMisc                  0      0.00%     65.85% # Type of FU issued
system.cpu1.iq.FU_type_0::SimdMult                  0      0.00%     65.85% # Type of FU issued
system.cpu1.iq.FU_type_0::SimdMultAcc               0      0.00%     65.85% # Type of FU issued
system.cpu1.iq.FU_type_0::SimdShift                 0      0.00%     65.85% # Type of FU issued
system.cpu1.iq.FU_type_0::SimdShiftAcc              0      0.00%     65.85% # Type of FU issued
system.cpu1.iq.FU_type_0::SimdDiv                   0      0.00%     65.85% # Type of FU issued
system.cpu1.iq.FU_type_0::SimdSqrt                  0      0.00%     65.85% # Type of FU issued
system.cpu1.iq.FU_type_0::SimdFloatAdd              0      0.00%     65.85% # Type of FU issued
system.cpu1.iq.FU_type_0::SimdFloatAlu              0      0.00%     65.85% # Type of FU issued
system.cpu1.iq.FU_type_0::SimdFloatCmp              0      0.00%     65.85% # Type of FU issued
system.cpu1.iq.FU_type_0::SimdFloatCvt              0      0.00%     65.85% # Type of FU issued
system.cpu1.iq.FU_type_0::SimdFloatDiv              0      0.00%     65.85% # Type of FU issued
system.cpu1.iq.FU_type_0::SimdFloatMisc             0      0.00%     65.85% # Type of FU issued
system.cpu1.iq.FU_type_0::SimdFloatMult             0      0.00%     65.85% # Type of FU issued
system.cpu1.iq.FU_type_0::SimdFloatMultAcc            0      0.00%     65.85% # Type of FU issued
system.cpu1.iq.FU_type_0::SimdFloatSqrt             0      0.00%     65.85% # Type of FU issued
system.cpu1.iq.FU_type_0::SimdReduceAdd             0      0.00%     65.85% # Type of FU issued
system.cpu1.iq.FU_type_0::SimdReduceAlu             0      0.00%     65.85% # Type of FU issued
system.cpu1.iq.FU_type_0::SimdReduceCmp             0      0.00%     65.85% # Type of FU issued
system.cpu1.iq.FU_type_0::SimdFloatReduceAdd            0      0.00%     65.85% # Type of FU issued
system.cpu1.iq.FU_type_0::SimdFloatReduceCmp            0      0.00%     65.85% # Type of FU issued
system.cpu1.iq.FU_type_0::SimdAes                   0      0.00%     65.85% # Type of FU issued
system.cpu1.iq.FU_type_0::SimdAesMix                0      0.00%     65.85% # Type of FU issued
system.cpu1.iq.FU_type_0::SimdSha1Hash              0      0.00%     65.85% # Type of FU issued
system.cpu1.iq.FU_type_0::SimdSha1Hash2             0      0.00%     65.85% # Type of FU issued
system.cpu1.iq.FU_type_0::SimdSha256Hash            0      0.00%     65.85% # Type of FU issued
system.cpu1.iq.FU_type_0::SimdSha256Hash2            0      0.00%     65.85% # Type of FU issued
system.cpu1.iq.FU_type_0::SimdShaSigma2             0      0.00%     65.85% # Type of FU issued
system.cpu1.iq.FU_type_0::SimdShaSigma3             0      0.00%     65.85% # Type of FU issued
system.cpu1.iq.FU_type_0::SimdPredAlu               0      0.00%     65.85% # Type of FU issued
system.cpu1.iq.FU_type_0::MemRead            36433545     27.07%     92.92% # Type of FU issued
system.cpu1.iq.FU_type_0::MemWrite            9532652      7.08%    100.00% # Type of FU issued
system.cpu1.iq.FU_type_0::FloatMemRead              0      0.00%    100.00% # Type of FU issued
system.cpu1.iq.FU_type_0::FloatMemWrite            12      0.00%    100.00% # Type of FU issued
system.cpu1.iq.FU_type_0::IprAccess                 0      0.00%    100.00% # Type of FU issued
system.cpu1.iq.FU_type_0::InstPrefetch              0      0.00%    100.00% # Type of FU issued
system.cpu1.iq.FU_type_0::total             134598107                       # Type of FU issued
system.cpu1.iq.fp_alu_accesses                     14                       # Number of floating point alu accesses
system.cpu1.iq.fp_inst_queue_reads                 26                       # Number of floating instruction queue reads
system.cpu1.iq.fp_inst_queue_wakeup_accesses           12                       # Number of floating instruction queue wakeup accesses
system.cpu1.iq.fp_inst_queue_writes                12                       # Number of floating instruction queue writes
system.cpu1.iq.fu_busy_cnt                    2693720                       # FU busy when requested
system.cpu1.iq.fu_busy_rate                  0.020013                       # FU busy rate (busy events/executed inst)
system.cpu1.iq.fu_full::No_OpClass                  0      0.00%      0.00% # attempts to use FU when none available
system.cpu1.iq.fu_full::IntAlu                 444776     16.51%     16.51% # attempts to use FU when none available
system.cpu1.iq.fu_full::IntMult                     0      0.00%     16.51% # attempts to use FU when none available
system.cpu1.iq.fu_full::IntDiv                      0      0.00%     16.51% # attempts to use FU when none available
system.cpu1.iq.fu_full::FloatAdd                    0      0.00%     16.51% # attempts to use FU when none available
system.cpu1.iq.fu_full::FloatCmp                    0      0.00%     16.51% # attempts to use FU when none available
system.cpu1.iq.fu_full::FloatCvt                    0      0.00%     16.51% # attempts to use FU when none available
system.cpu1.iq.fu_full::FloatMult                   0      0.00%     16.51% # attempts to use FU when none available
system.cpu1.iq.fu_full::FloatMultAcc                0      0.00%     16.51% # attempts to use FU when none available
system.cpu1.iq.fu_full::FloatDiv                    0      0.00%     16.51% # attempts to use FU when none available
system.cpu1.iq.fu_full::FloatMisc                   0      0.00%     16.51% # attempts to use FU when none available
system.cpu1.iq.fu_full::FloatSqrt                   0      0.00%     16.51% # attempts to use FU when none available
system.cpu1.iq.fu_full::SimdAdd                     0      0.00%     16.51% # attempts to use FU when none available
system.cpu1.iq.fu_full::SimdAddAcc                  0      0.00%     16.51% # attempts to use FU when none available
system.cpu1.iq.fu_full::SimdAlu                     0      0.00%     16.51% # attempts to use FU when none available
system.cpu1.iq.fu_full::SimdCmp                     0      0.00%     16.51% # attempts to use FU when none available
system.cpu1.iq.fu_full::SimdCvt                     0      0.00%     16.51% # attempts to use FU when none available
system.cpu1.iq.fu_full::SimdMisc                    0      0.00%     16.51% # attempts to use FU when none available
system.cpu1.iq.fu_full::SimdMult                    0      0.00%     16.51% # attempts to use FU when none available
system.cpu1.iq.fu_full::SimdMultAcc                 0      0.00%     16.51% # attempts to use FU when none available
system.cpu1.iq.fu_full::SimdShift                   0      0.00%     16.51% # attempts to use FU when none available
system.cpu1.iq.fu_full::SimdShiftAcc                0      0.00%     16.51% # attempts to use FU when none available
system.cpu1.iq.fu_full::SimdDiv                     0      0.00%     16.51% # attempts to use FU when none available
system.cpu1.iq.fu_full::SimdSqrt                    0      0.00%     16.51% # attempts to use FU when none available
system.cpu1.iq.fu_full::SimdFloatAdd                0      0.00%     16.51% # attempts to use FU when none available
system.cpu1.iq.fu_full::SimdFloatAlu                0      0.00%     16.51% # attempts to use FU when none available
system.cpu1.iq.fu_full::SimdFloatCmp                0      0.00%     16.51% # attempts to use FU when none available
system.cpu1.iq.fu_full::SimdFloatCvt                0      0.00%     16.51% # attempts to use FU when none available
system.cpu1.iq.fu_full::SimdFloatDiv                0      0.00%     16.51% # attempts to use FU when none available
system.cpu1.iq.fu_full::SimdFloatMisc               0      0.00%     16.51% # attempts to use FU when none available
system.cpu1.iq.fu_full::SimdFloatMult               0      0.00%     16.51% # attempts to use FU when none available
system.cpu1.iq.fu_full::SimdFloatMultAcc            0      0.00%     16.51% # attempts to use FU when none available
system.cpu1.iq.fu_full::SimdFloatSqrt               0      0.00%     16.51% # attempts to use FU when none available
system.cpu1.iq.fu_full::SimdReduceAdd               0      0.00%     16.51% # attempts to use FU when none available
system.cpu1.iq.fu_full::SimdReduceAlu               0      0.00%     16.51% # attempts to use FU when none available
system.cpu1.iq.fu_full::SimdReduceCmp               0      0.00%     16.51% # attempts to use FU when none available
system.cpu1.iq.fu_full::SimdFloatReduceAdd            0      0.00%     16.51% # attempts to use FU when none available
system.cpu1.iq.fu_full::SimdFloatReduceCmp            0      0.00%     16.51% # attempts to use FU when none available
system.cpu1.iq.fu_full::SimdAes                     0      0.00%     16.51% # attempts to use FU when none available
system.cpu1.iq.fu_full::SimdAesMix                  0      0.00%     16.51% # attempts to use FU when none available
system.cpu1.iq.fu_full::SimdSha1Hash                0      0.00%     16.51% # attempts to use FU when none available
system.cpu1.iq.fu_full::SimdSha1Hash2               0      0.00%     16.51% # attempts to use FU when none available
system.cpu1.iq.fu_full::SimdSha256Hash              0      0.00%     16.51% # attempts to use FU when none available
system.cpu1.iq.fu_full::SimdSha256Hash2             0      0.00%     16.51% # attempts to use FU when none available
system.cpu1.iq.fu_full::SimdShaSigma2               0      0.00%     16.51% # attempts to use FU when none available
system.cpu1.iq.fu_full::SimdShaSigma3               0      0.00%     16.51% # attempts to use FU when none available
system.cpu1.iq.fu_full::SimdPredAlu                 0      0.00%     16.51% # attempts to use FU when none available
system.cpu1.iq.fu_full::MemRead               1833932     68.08%     84.59% # attempts to use FU when none available
system.cpu1.iq.fu_full::MemWrite               415010     15.41%    100.00% # attempts to use FU when none available
system.cpu1.iq.fu_full::FloatMemRead                0      0.00%    100.00% # attempts to use FU when none available
[...]
system.cpu1.dcache.WriteReq_hits::.cpu1.data      5781206                       # number of WriteReq hits
system.cpu1.dcache.WriteReq_hits::total       5781206                       # number of WriteReq hits
system.cpu1.dcache.WriteReq_misses::.cpu1.data      1959362                       # number of WriteReq misses
system.cpu1.dcache.WriteReq_misses::total      1959362                       # number of WriteReq misses
system.cpu1.dcache.WriteReq_miss_latency::.cpu1.data 111303449916                       # number of WriteReq miss cycles
system.cpu1.dcache.WriteReq_miss_latency::total 111303449916                       # number of WriteReq miss cycles
system.cpu1.dcache.WriteReq_accesses::.cpu1.data      7740568                       # number of WriteReq accesses(hits+misses)
system.cpu1.dcache.WriteReq_accesses::total      7740568                       # number of WriteReq accesses(hits+misses)
system.cpu1.dcache.WriteReq_miss_rate::.cpu1.data     0.253129                       # miss rate for WriteReq accesses
system.cpu1.dcache.WriteReq_miss_rate::total     0.253129                       # miss rate for WriteReq accesses
system.cpu1.dcache.WriteReq_avg_miss_latency::.cpu1.data 56805.965368                       # average WriteReq miss latency
system.cpu1.dcache.WriteReq_avg_miss_latency::total 56805.965368                       # average WriteReq miss latency
system.cpu1.dcache.WriteReq_mshr_hits::.cpu1.data      1742923                       # number of WriteReq MSHR hits
system.cpu1.dcache.WriteReq_mshr_hits::total      1742923                       # number of WriteReq MSHR hits
system.cpu1.dcache.WriteReq_mshr_misses::.cpu1.data       216439                       # number of WriteReq MSHR misses
system.cpu1.dcache.WriteReq_mshr_misses::total       216439                       # number of WriteReq MSHR misses
system.cpu1.dcache.WriteReq_mshr_miss_latency::.cpu1.data  10713255421                       # number of WriteReq MSHR miss cycles
system.cpu1.dcache.WriteReq_mshr_miss_latency::total  10713255421                       # number of WriteReq MSHR miss cycles
system.cpu1.dcache.WriteReq_mshr_miss_rate::.cpu1.data     0.027962                       # mshr miss rate for WriteReq accesses
system.cpu1.dcache.WriteReq_mshr_miss_rate::total     0.027962                       # mshr miss rate for WriteReq accesses
system.cpu1.dcache.WriteReq_avg_mshr_miss_latency::.cpu1.data 49497.805021                       # average WriteReq mshr miss latency
system.cpu1.dcache.WriteReq_avg_mshr_miss_latency::total 49497.805021                       # average WriteReq mshr miss latency
system.cpu1.dcache.LoadLockedReq_hits::.cpu1.data         1274                       # number of LoadLockedReq hits
system.cpu1.dcache.LoadLockedReq_hits::total         1274                       # number of LoadLockedReq hits
system.cpu1.dcache.LoadLockedReq_misses::.cpu1.data          252                       # number of LoadLockedReq misses
system.cpu1.dcache.LoadLockedReq_misses::total          252                       # number of LoadLockedReq misses
system.cpu1.dcache.LoadLockedReq_miss_latency::.cpu1.data     21280500                       # number of LoadLockedReq miss cycles
system.cpu1.dcache.LoadLockedReq_miss_latency::total     21280500                       # number of LoadLockedReq miss cycles
system.cpu1.dcache.LoadLockedReq_accesses::.cpu1.data         1526                       # number of LoadLockedReq accesses(hits+misses)
system.cpu1.dcache.LoadLockedReq_accesses::total         1526                       # number of LoadLockedReq accesses(hits+misses)
system.cpu1.dcache.LoadLockedReq_miss_rate::.cpu1.data     0.165138                       # miss rate for LoadLockedReq accesses
system.cpu1.dcache.LoadLockedReq_miss_rate::total     0.165138                       # miss rate for LoadLockedReq accesses
system.cpu1.dcache.LoadLockedReq_avg_miss_latency::.cpu1.data 84446.428571                       # average LoadLockedReq miss latency
system.cpu1.dcache.LoadLockedReq_avg_miss_latency::total 84446.428571                       # average LoadLockedReq miss latency
system.cpu1.dcache.LoadLockedReq_mshr_hits::.cpu1.data          102                       # number of LoadLockedReq MSHR hits
system.cpu1.dcache.LoadLockedReq_mshr_hits::total          102                       # number of LoadLockedReq MSHR hits
system.cpu1.dcache.LoadLockedReq_mshr_misses::.cpu1.data          150                       # number of LoadLockedReq MSHR misses
system.cpu1.dcache.LoadLockedReq_mshr_misses::total          150                       # number of LoadLockedReq MSHR misses
system.cpu1.dcache.LoadLockedReq_mshr_miss_latency::.cpu1.data     11946000                       # number of LoadLockedReq MSHR miss cycles
system.cpu1.dcache.LoadLockedReq_mshr_miss_latency::total     11946000                       # number of LoadLockedReq MSHR miss cycles
system.cpu1.dcache.LoadLockedReq_mshr_miss_rate::.cpu1.data     0.098296                       # mshr miss rate for LoadLockedReq accesses
system.cpu1.dcache.LoadLockedReq_mshr_miss_rate::total     0.098296                       # mshr miss rate for LoadLockedReq accesses
system.cpu1.dcache.LoadLockedReq_avg_mshr_miss_latency::.cpu1.data        79640                       # average LoadLockedReq mshr miss latency
system.cpu1.dcache.LoadLockedReq_avg_mshr_miss_latency::total        79640                       # average LoadLockedReq mshr miss latency
system.cpu1.dcache.StoreCondReq_hits::.cpu1.data         1074                       # number of StoreCondReq hits
system.cpu1.dcache.StoreCondReq_hits::total         1074                       # number of StoreCondReq hits
system.cpu1.dcache.StoreCondReq_misses::.cpu1.data          362                       # number of StoreCondReq misses
system.cpu1.dcache.StoreCondReq_misses::total          362                       # number of StoreCondReq misses
system.cpu1.dcache.StoreCondReq_miss_latency::.cpu1.data      2120000                       # number of StoreCondReq miss cycles
system.cpu1.dcache.StoreCondReq_miss_latency::total      2120000                       # number of StoreCondReq miss cycles
system.cpu1.dcache.StoreCondReq_accesses::.cpu1.data         1436                       # number of StoreCondReq accesses(hits+misses)
system.cpu1.dcache.StoreCondReq_accesses::total         1436                       # number of StoreCondReq accesses(hits+misses)
system.cpu1.dcache.StoreCondReq_miss_rate::.cpu1.data     0.252089                       # miss rate for StoreCondReq accesses
system.cpu1.dcache.StoreCondReq_miss_rate::total     0.252089                       # miss rate for StoreCondReq accesses
system.cpu1.dcache.StoreCondReq_avg_miss_latency::.cpu1.data  5856.353591                       # average StoreCondReq miss latency
system.cpu1.dcache.StoreCondReq_avg_miss_latency::total  5856.353591                       # average StoreCondReq miss latency
system.cpu1.dcache.StoreCondReq_mshr_misses::.cpu1.data          362                       # number of StoreCondReq MSHR misses
system.cpu1.dcache.StoreCondReq_mshr_misses::total          362                       # number of StoreCondReq MSHR misses
system.cpu1.dcache.StoreCondReq_mshr_miss_latency::.cpu1.data      1759000                       # number of StoreCondReq MSHR miss cycles
system.cpu1.dcache.StoreCondReq_mshr_miss_latency::total      1759000                       # number of StoreCondReq MSHR miss cycles
system.cpu1.dcache.StoreCondReq_mshr_miss_rate::.cpu1.data     0.252089                       # mshr miss rate for StoreCondReq accesses
system.cpu1.dcache.StoreCondReq_mshr_miss_rate::total     0.252089                       # mshr miss rate for StoreCondReq accesses
system.cpu1.dcache.StoreCondReq_avg_mshr_miss_latency::.cpu1.data  4859.116022                       # average StoreCondReq mshr miss latency
system.cpu1.dcache.StoreCondReq_avg_mshr_miss_latency::total  4859.116022                       # average StoreCondReq mshr miss latency
system.cpu1.dcache.StoreCondFailReq_miss_latency::.cpu1.data        15500                       # number of StoreCondFailReq miss cycles
system.cpu1.dcache.StoreCondFailReq_miss_latency::total        15500                       # number of StoreCondFailReq miss cycles
system.cpu1.dcache.StoreCondFailReq_avg_miss_latency::.cpu1.data          inf                       # average StoreCondFailReq miss latency
system.cpu1.dcache.StoreCondFailReq_avg_miss_latency::total          inf                       # average StoreCondFailReq miss latency
system.cpu1.dcache.StoreCondFailReq_mshr_miss_latency::.cpu1.data        14500                       # number of StoreCondFailReq MSHR miss cycles
system.cpu1.dcache.StoreCondFailReq_mshr_miss_latency::total        14500                       # number of StoreCondFailReq MSHR miss cycles
system.cpu1.dcache.StoreCondFailReq_avg_mshr_miss_latency::.cpu1.data          inf                       # average StoreCondFailReq mshr miss latency
system.cpu1.dcache.StoreCondFailReq_avg_mshr_miss_latency::total          inf                       # average StoreCondFailReq mshr miss latency
system.cpu1.dcache.SwapReq_hits::.cpu1.data          570                       # number of SwapReq hits
system.cpu1.dcache.SwapReq_hits::total            570                       # number of SwapReq hits
system.cpu1.dcache.SwapReq_misses::.cpu1.data          255                       # number of SwapReq misses
system.cpu1.dcache.SwapReq_misses::total          255                       # number of SwapReq misses
system.cpu1.dcache.SwapReq_miss_latency::.cpu1.data      1091000                       # number of SwapReq miss cycles
system.cpu1.dcache.SwapReq_miss_latency::total      1091000                       # number of SwapReq miss cycles
system.cpu1.dcache.SwapReq_accesses::.cpu1.data          825                       # number of SwapReq accesses(hits+misses)
system.cpu1.dcache.SwapReq_accesses::total          825                       # number of SwapReq accesses(hits+misses)
system.cpu1.dcache.SwapReq_miss_rate::.cpu1.data     0.309091                       # miss rate for SwapReq accesses
system.cpu1.dcache.SwapReq_miss_rate::total     0.309091                       # miss rate for SwapReq accesses
system.cpu1.dcache.SwapReq_avg_miss_latency::.cpu1.data  4278.431373                       # average SwapReq miss latency
system.cpu1.dcache.SwapReq_avg_miss_latency::total  4278.431373                       # average SwapReq miss latency
system.cpu1.dcache.SwapReq_mshr_misses::.cpu1.data          255                       # number of SwapReq MSHR misses
system.cpu1.dcache.SwapReq_mshr_misses::total          255                       # number of SwapReq MSHR misses
system.cpu1.dcache.SwapReq_mshr_miss_latency::.cpu1.data       836000                       # number of SwapReq MSHR miss cycles
system.cpu1.dcache.SwapReq_mshr_miss_latency::total       836000                       # number of SwapReq MSHR miss cycles
system.cpu1.dcache.SwapReq_mshr_miss_rate::.cpu1.data     0.309091                       # mshr miss rate for SwapReq accesses
system.cpu1.dcache.SwapReq_mshr_miss_rate::total     0.309091                       # mshr miss rate for SwapReq accesses
system.cpu1.dcache.SwapReq_avg_mshr_miss_latency::.cpu1.data  3278.431373                       # average SwapReq mshr miss latency
system.cpu1.dcache.SwapReq_avg_mshr_miss_latency::total  3278.431373                       # average SwapReq mshr miss latency
system.cpu1.dcache.tags.pwrStateResidencyTicks::UNDEFINED 1914036473000                       # Cumulative time (in ticks) in various power states
system.cpu1.dcache.tags.tagsinuse           31.819882                       # Cycle average of tags in use
system.cpu1.dcache.tags.total_refs          131531787                       # Total number of references to valid blocks.
system.cpu1.dcache.tags.sampled_refs         14466790                       # Sample count of references to valid blocks.
system.cpu1.dcache.tags.avg_refs             9.091981                       # Average number of references to valid blocks.
system.cpu1.dcache.tags.warmup_cycle                0                       # Cycle when the warmup percentage was hit.
system.cpu1.dcache.tags.occ_blocks::.cpu1.data    31.819882                       # Average occupied blocks per requestor
system.cpu1.dcache.tags.occ_percent::.cpu1.data     0.994371                       # Average percentage of cache occupancy
system.cpu1.dcache.tags.occ_percent::total     0.994371                       # Average percentage of cache occupancy
system.cpu1.dcache.tags.occ_task_id_blocks::1024           29                       # Occupied blocks per task id
system.cpu1.dcache.tags.age_task_id_blocks_1024::1           29                       # Occupied blocks per task id
system.cpu1.dcache.tags.occ_task_id_percent::1024     0.906250                       # Percentage of cache occupancy per task id
system.cpu1.dcache.tags.tag_accesses        330868811                       # Number of tag accesses
system.cpu1.dcache.tags.data_accesses       330868811                       # Number of data accesses
system.cpu_clk_domain.clock                       500                       # Clock period in ticks
system.tol2bus.pwrStateResidencyTicks::UNDEFINED 1914036473000                       # Cumulative time (in ticks) in various power states
system.tol2bus.trans_dist::ReadResp          67507149                       # Transaction distribution
system.tol2bus.trans_dist::WritebackDirty     10179854                       # Transaction distribution
system.tol2bus.trans_dist::WritebackClean     62797499                       # Transaction distribution
system.tol2bus.trans_dist::CleanEvict       175292701                       # Transaction distribution
system.tol2bus.trans_dist::HardPFReq        101891085                       # Transaction distribution
system.tol2bus.trans_dist::HardPFResp               3                       # Transaction distribution
system.tol2bus.trans_dist::UpgradeReq            2234                       # Transaction distribution
system.tol2bus.trans_dist::SCUpgradeReq           784                       # Transaction distribution
system.tol2bus.trans_dist::UpgradeResp           3018                       # Transaction distribution
system.tol2bus.trans_dist::SCUpgradeFailReq            1                       # Transaction distribution
system.tol2bus.trans_dist::UpgradeFailResp            1                       # Transaction distribution
system.tol2bus.trans_dist::ReadExReq           451659                       # Transaction distribution
system.tol2bus.trans_dist::ReadExResp          451659                       # Transaction distribution
system.tol2bus.trans_dist::ReadCleanReq         26203                       # Transaction distribution
system.tol2bus.trans_dist::ReadSharedReq     67480947                       # Transaction distribution
system.tol2bus.trans_dist::InvalidateReq            2                       # Transaction distribution
system.tol2bus.trans_dist::InvalidateResp            2                       # Transaction distribution
system.tol2bus.pkt_count_system.cpu0.icache.mem_side::system.l2.cpu_side        63190                       # Packet count per connected master and slave (bytes)
system.tol2bus.pkt_count_system.cpu0.dcache.mem_side::system.l2.cpu_side    160397000                       # Packet count per connected master and slave (bytes)
system.tol2bus.pkt_count_system.cpu1.icache.mem_side::system.l2.cpu_side        15417                       # Packet count per connected master and slave (bytes)
system.tol2bus.pkt_count_system.cpu1.dcache.mem_side::system.l2.cpu_side     43396461                       # Packet count per connected master and slave (bytes)
system.tol2bus.pkt_count::total             203872068                       # Packet count per connected master and slave (bytes)
system.tol2bus.pkt_size_system.cpu0.icache.mem_side::system.l2.cpu_side      2696064                       # Cumulative packet size per connected master and slave (bytes)
system.tol2bus.pkt_size_system.cpu0.dcache.mem_side::system.l2.cpu_side   6843425856                       # Cumulative packet size per connected master and slave (bytes)
system.tol2bus.pkt_size_system.cpu1.icache.mem_side::system.l2.cpu_side       657792                       # Cumulative packet size per connected master and slave (bytes)
system.tol2bus.pkt_size_system.cpu1.dcache.mem_side::system.l2.cpu_side   1851415680                       # Cumulative packet size per connected master and slave (bytes)
system.tol2bus.pkt_size::total             8698195392                       # Cumulative packet size per connected master and slave (bytes)
system.tol2bus.snoops                       282212736                       # Total snoops (count)
system.tol2bus.snoopTraffic                 321719360                       # Total snoop traffic (bytes)
system.tol2bus.snoop_fanout::samples        350207278                       # Request fanout histogram
system.tol2bus.snoop_fanout::mean            0.151580                       # Request fanout histogram
system.tol2bus.snoop_fanout::stdev           0.365081                       # Request fanout histogram
system.tol2bus.snoop_fanout::underflows             0      0.00%      0.00% # Request fanout histogram
system.tol2bus.snoop_fanout::0              297942263     85.08%     85.08% # Request fanout histogram
system.tol2bus.snoop_fanout::1               51445456     14.69%     99.77% # Request fanout histogram
system.tol2bus.snoop_fanout::2                 819559      0.23%    100.00% # Request fanout histogram
system.tol2bus.snoop_fanout::3                      0      0.00%    100.00% # Request fanout histogram
system.tol2bus.snoop_fanout::4                      0      0.00%    100.00% # Request fanout histogram
system.tol2bus.snoop_fanout::5                      0      0.00%    100.00% # Request fanout histogram
system.tol2bus.snoop_fanout::6                      0      0.00%    100.00% # Request fanout histogram
system.tol2bus.snoop_fanout::7                      0      0.00%    100.00% # Request fanout histogram
system.tol2bus.snoop_fanout::8                      0      0.00%    100.00% # Request fanout histogram
system.tol2bus.snoop_fanout::overflows              0      0.00%    100.00% # Request fanout histogram
system.tol2bus.snoop_fanout::min_value              0                       # Request fanout histogram
system.tol2bus.snoop_fanout::max_value              2                       # Request fanout histogram
system.tol2bus.snoop_fanout::total          350207278                       # Request fanout histogram
system.tol2bus.reqLayer0.occupancy       135989320517                       # Layer occupancy (ticks)
system.tol2bus.reqLayer0.utilization              7.1                       # Layer utilization (%)
system.tol2bus.respLayer1.occupancy       80214790820                       # Layer occupancy (ticks)
system.tol2bus.respLayer1.utilization             4.2                       # Layer utilization (%)
system.tol2bus.respLayer0.occupancy          31637414                       # Layer occupancy (ticks)
system.tol2bus.respLayer0.utilization             0.0                       # Layer utilization (%)
system.tol2bus.respLayer3.occupancy       21707594663                       # Layer occupancy (ticks)
system.tol2bus.respLayer3.utilization             1.1                       # Layer utilization (%)
system.tol2bus.respLayer2.occupancy           7730954                       # Layer occupancy (ticks)
system.tol2bus.respLayer2.utilization             0.0                       # Layer utilization (%)
system.tol2bus.snoopLayer0.occupancy             4501                       # Layer occupancy (ticks)
system.tol2bus.snoopLayer0.utilization            0.0                       # Layer utilization (%)

---------- End Simulation Statistics   ----------
