Redirecting stdout to /vol1/msoyturk/gem5/results/sssp/gowalla.el/prefetch_DCPTPrefetcher_SecondChanceRP/output.txt
Redirecting stderr to /vol1/msoyturk/gem5/results/sssp/gowalla.el/prefetch_DCPTPrefetcher_SecondChanceRP/error.txt
gem5 Simulator System.  http://gem5.org
gem5 is copyrighted software; use the --copyright option for details.

gem5 compiled Apr 26 2020 13:32:47
gem5 started Apr 30 2020 04:32:18
gem5 executing on draco, pid 1875
command line: /vol1/msoyturk/gem5/build/RISCV/gem5.fast -re --outdir=/vol1/msoyturk/gem5/results/sssp/gowalla.el/prefetch_DCPTPrefetcher_SecondChanceRP --stdout-file=output.txt --stderr-file=error.txt /vol1/msoyturk/gem5/configs/example/my_se.py -c /vol1/msoyturk/gem5/gapbs/sssp -o '-f /vol1/msoyturk/gem5/gapbs/test/graphs/gowalla.el' --caches --l1d_size=2kB --l1i_size=2kB --cpu-type=DerivO3CPU -n 4 --mem-size=512MB --l2cache --l2_size=4kB --l2-hwp-type=DCPTPrefetcher --l2-replacement-policy=SecondChanceRP --l1i_mshrs=4 --l1d_mshrs=4 --l2_mshrs=20 --l1i_write_buffers=8 --l1d_write_buffers=8 --l2_write_buffers=8

info: Standard input is not a terminal, disabling listeners.
Warning: l2-hwp-type is set ( DCPTPrefetcher ), but the current l2 has a default Hardware Prefetcher of type <class 'm5.params.NullSimObject'> , using the specified by the flag option.
Global frequency set at 1000000000000 ticks per second
**** REAL SIMULATION ****
Read Time:           1.95364
Build Time:          0.40031
Graph has 196591 nodes and 1900654 directed edges for degree: 9
    0          1     0.04561
   28          1     0.01415
   37          1     0.06786
   40          1     0.02817
   42          1     0.10016
   43          2     0.09437
   44          2     0.05316
   45          2     0.07907
   46          5     0.11448
   47          6     0.08978
   48          6     0.17481
   49          6     1.72173
   50         15     1.33210
   51         33     0.68437
   52         36     1.74303
   53         64     1.13377
   54         80     1.63052
   55        149     2.92169
   56        209     3.63579
   57        339     1.92964
   58        445     1.70656
   59        528     2.89414
   60        713     2.07175
   61        814     1.83505
   62        929     1.87273
   63       1038     1.77240
   64       1147     1.79852
   65       1174     1.56006
   66       1223     1.58245
   67       1272     1.44973
   68       1325     1.34881
   69       1497     1.43749
   70       1504     1.29099
   71       1481     1.22237
   72       1609     1.23943
   73       1566     1.17860
   74       1645     1.09366
   75       1589     1.09781
   76       1695     0.98292
   77       1653     0.90157
   78       1634     0.88909
   79       1627     0.90374
   80       1645     0.81135
   81       1747     0.86409
   82       1634     0.76691
   83       1699     0.77639
   84       1725     0.75192
   85       1673     0.69571
   86       1694     0.67529
   87       1686     0.72538
   88       1705     0.67680
   89       1613     0.59471
   90       1759     0.66967
   91       1791     0.65802
   92       1714     0.59095
   93       1744     0.63472
   94       1723     0.62390
   95       1696     0.57354
   96       1706     0.57130
   97       1686     0.53851
   98       1686     0.53393
   99       1690     0.51137
  100       1667     0.51187
  101       1674     0.51958
  102       1711     0.50035
  103       1703     0.50885
  104       1695     0.48372
  105       1582     0.42729
  106       1694     0.44541
  107       1647     0.43258
  108       1610     0.40505
  109       1565     0.38171
  110       1678     0.44944
  111       1662     0.41582
  112       1641     0.36492
  113       1598     0.38080
  114       1565     0.36869
  115       1589     0.38287
  116       1513     0.32359
  117       1646     0.35632
  118       1608     0.35630
  119       1675     0.35412
  120       1671     0.36767
  121       1592     0.32043
  122       1698     0.36058
  123       1604     0.31495
  124       1612     0.31574
  125       1596     0.30897
  126       1542     0.32503
  127       1529     0.31912
  128       1549     0.29690
  129       1615     0.30565
  130       1544     0.30163
  131       1510     0.28485
  132       1563     0.28800
  133       1499     0.28338
  134       1510     0.28888
  135       1499     0.25032
  136       1539     0.26794
  137       1463     0.24974
  138       1484     0.24971
  139       1407     0.25848
  140       1496     0.27313
  141       1470     0.24177
  142       1485     0.25493
  143       1518     0.24619
  144       1462     0.27298
  145       1464     0.22309
  146       1452     0.23604
  147       1411     0.23108
  148       1436     0.21401
  149       1433     0.22246
  150       1355     0.22846
  151       1442     0.20887
  152       1531     0.24909
  153       1392     0.19867
  154       1383     0.20899
  155       1396     0.21584
  156       1319     0.19093
  157       1320     0.17742
  158       1337     0.19068
  159       1371     0.19307
  160       1381     0.19486
  161       1250     0.18186
  162       1383     0.19387
  163       1327     0.17858
  164       1353     0.18759
  165       1330     0.17689
  166       1390     0.18612
  167       1302     0.17016
  168       1298     0.18266
  169       1265     0.17802
  170       1306     0.17222
  171       1295     0.16897
  172       1291     0.16358
  173       1313     0.16469
  174       1293     0.16475
  175       1263     0.15150
  176       1272     0.15101
  177       1312     0.15571
  178       1226     0.15566
  179       1250     0.15003
  180       1260     0.14008
  181       1260     0.17361
  182       1240     0.15086
  183       1211     0.14456
  184       1275     0.17451
  185       1184     0.14179
  186       1170     0.13875
  187       1209     0.13897
  188       1165     0.13782
  189       1217     0.15131
  190       1189     0.13783
  191       1196     0.14663
  192       1175     0.13648
  193       1138     0.15114
  194       1167     0.12658
  195       1139     0.13974
  196       1166     0.12526
  197       1182     0.14408
  198       1134     0.12420
  199       1126     0.12048
  200       1171     0.13689
  201       1198     0.13882
  202       1110     0.12108
  203       1152     0.13563
  204       1117     0.12253
  205       1125     0.13408
  206       1114     0.11768
  207       1106     0.12367
  208       1090     0.12279
  209       1109     0.11970
  210       1101     0.11987
  211       1107     0.11414
  212       1103     0.13152
  213       1092     0.12684
  214       1121     0.12187
  215       1113     0.11455
  216       1055     0.10528
  217       1064     0.11218
  218       1105     0.10402
  219       1074     0.09792
  220       1067     0.11842
  221       1023     0.10535
  222       1069     0.12657
  223       1089     0.11035
  224       1073     0.10412
  225       1023     0.10459
  226       1026     0.11128
  227       1069     0.10470
  228        971     0.10719
  229        974     0.10085
  230       1076     0.12094
  231       1020     0.11192
  232       1047     0.10773
  233       1050     0.09337
  234       1026     0.10224
  235       1002     0.09135
  236       1005     0.11273
  237        965     0.08788
  238       1022     0.09863
  239       1041     0.10813
  240        989     0.10682
  241        976     0.08423
  242       1002     0.09588
  243        976     0.09444
  244        967     0.09188
  245        973     0.08801
  246        993     0.09444
  247        978     0.10098
  248        969     0.08678
  249        969     0.09634
  250        992     0.09340
  251        966     0.09051
  252        979     0.09646
  253        921     0.08229
  254        928     0.08206
  255        939     0.08556
  256        950     0.08177
  257        915     0.07952
  258        948     0.09552
  259       1000     0.08517
  260        910     0.09504
  261        940     0.08370
  262        913     0.09384
  263        885     0.08027
  264        897     0.09650
  265        922     0.08152
  266        915     0.06934
  267        940     0.08178
  268        895     0.08700
  269        876     0.08852
  270        903     0.09104
  271        886     0.07738
  272        893     0.08611
  273        896     0.08083
  274        882     0.07212
  275        900     0.08560
  276        951     0.08724
  277        923     0.08660
  278        871     0.09308
  279        868     0.07906
  280        934     0.07804
  281        882     0.07295
  282        853     0.07081
  283        859     0.07234
  284        880     0.07230
  285        864     0.07177
  286        842     0.07652
  287        876     0.07400
  288        832     0.07727
  289        885     0.08061
  290        866     0.06893
  291        822     0.06565
  292        825     0.06609
  293        880     0.08395
  294        886     0.07017
  295        846     0.06770
  296        871     0.08281
  297        835     0.07243
  298        865     0.08445
  299        878     0.06992
  300        855     0.06902
  301        817     0.06228
  302        823     0.07105
  303        790     0.07319
  304        824     0.06752
  305        834     0.06990
  306        801     0.07005
  307        771     0.06675
  308        764     0.07496
  309        723     0.06259
  310        766     0.07084
  311        666     0.05413
  312        662     0.07090
  313        623     0.05984
  314        609     0.05459
  315        612     0.05646
  316        514     0.05723
  317        504     0.04541
  318        465     0.04808
  319        483     0.05128
  320        467     0.04810
  321        448     0.04617
  322        468     0.04951
  323        424     0.04615
  324        411     0.04637
  325        410     0.05682
  326        368     0.04507
  327        403     0.04311
  328        368     0.04180
  329        325     0.03583
  330        344     0.04851
  331        311     0.03829
  332        334     0.03977
  333        316     0.03441
  334        336     0.05236
  335        279     0.04083
  336        316     0.03541
  337        273     0.04156
  338        284     0.03574
  339        282     0.03659
  340        269     0.03877
  341        317     0.03852
  342        273     0.04459
  343        238     0.03179
  344        239     0.02695
  345        232     0.03495
  346        244     0.03669
  347        235     0.03223
  348        234     0.02894
  349        218     0.03199
  350        216     0.03086
  351        214     0.03955
  352        191     0.02748
  353        188     0.02783
  354        214     0.02896
  355        225     0.03513
  356        208     0.02617
  357        203     0.03537
  358        201     0.03553
  359        177     0.03611
  360        168     0.03242
  361        149     0.02680
  362        168     0.03071
  363        183     0.02965
  364        163     0.03270
  365        175     0.02845
  366        163     0.03381
  367        146     0.03566
  368        150     0.02288
  369        160     0.02980
  370        154     0.02224
  371        166     0.02692
  372        137     0.02303
  373        141     0.02620
  374        151     0.02862
  375        145     0.02741
  376        121     0.02537
  377        143     0.02401
  378        128     0.02858
  379        127     0.02437
  380        111     0.02666
  381        135     0.02029
  382        126     0.03245
  383        107     0.01983
  384        108     0.02142
  385        124     0.02385
  386        111     0.02060
  387        126     0.02762
  388        118     0.01792
  389        100     0.02552
  390        107     0.02193
  391        107     0.01795
  392        122     0.02360
  393        122     0.02060
  394         96     0.02167
  395         96     0.02439
  396         92     0.02159
  397         92     0.02815
  398         98     0.02479
  399        104     0.02518
  400         97     0.01882
  401         92     0.02905
  402        102     0.01989
  403         82     0.01796
  404         88     0.02728
  405         68     0.02190
  406         76     0.02486
  407        103     0.02534
  408         83     0.02735
  409         89     0.01987
  410         87     0.02686
  411         65     0.01996
  412         83     0.02559
  413         96     0.02337
  414         68     0.01830
  415         80     0.02856
  416         78     0.02250
  417         85     0.02174
  418         86     0.02138
  419         64     0.02564
  420         66     0.02074
  421         69     0.02166
  422         72     0.02286
  423         72     0.02508
  424         75     0.02137
  425         74     0.02341
  426         72     0.02805
  427         53     0.01627
  428         69     0.01910
  429         64     0.02033
  430         68     0.01858
  431         74     0.02362
  432         57     0.02228
  433         57     0.01970
  434         51     0.02035
  435         63     0.01750
  436         52     0.02146
  437         60     0.02109
  438         64     0.02114
  439         57     0.02355
  440         50     0.01439
  441         61     0.01935
  442         44     0.01692
  443         49     0.01842
  444         51     0.02079
  445         59     0.01708
  446         50     0.01696
  447         62     0.02383
  448         58     0.02718
  449         49     0.01569
  450         40     0.01608
  451         47     0.01976
  452         60     0.02514
  453         42     0.02199
  454         49     0.02402
  455         45     0.02500
  456         38     0.01671
  457         47     0.01818
  458         51     0.02075
  459         34     0.01157
  460         37     0.02117
  461         43     0.02057
  462         46     0.01684
  463         45     0.01335
  464         45     0.02400
  465         39     0.01857
  466         49     0.01778
  467         40     0.01652
  468         43     0.01295
  469         38     0.01200
  470         32     0.01414
  471         37     0.02226
  472         44     0.01626
  473         35     0.01312
  474         38     0.01492
  475         43     0.02061
  476         48     0.01382
  477         36     0.02248
  478         40     0.01451
  479         53     0.02713
  480         35     0.01626
  481         33     0.01355
  482         42     0.02114
  483         44     0.01805
  484         42     0.01818
  485         36     0.01594
  486         32     0.02333
  487         28     0.01382
  488         38     0.01692
  489         27     0.01515
  490         29     0.01600
  491         25     0.01017
  492         22     0.01508
  493         28     0.01352
  494         23     0.01272
  495         27     0.01661
  496         21     0.01264
  497         30     0.01299
  498         28     0.01214
  499         23     0.01239
  500         23     0.01298
  501         24     0.01243
  502         29     0.01384
  503         30     0.01671
  504         30     0.01443
  505         24     0.01826
  506         31     0.01458
  507         29     0.01505
  508         23     0.01347
  509         25     0.01231
  510         19     0.01139
  511         23     0.01009
  512         23     0.01690
  513         20     0.00924
  514         20     0.01190
  515         28     0.01443
  516         34     0.02009
  517         21     0.00972
  518         28     0.01054
  519         27     0.01340
  520         19     0.01214
  521         30     0.01680
  522         25     0.01921
  523         30     0.01443
  524         20     0.01080
  525         27     0.01719
  526         19     0.00932
  527         31     0.01545
  528         22     0.01457
  529         19     0.01862
  530         20     0.01406
  531         25     0.01651
  532         22     0.01495
  533         20     0.01811
  534         18     0.01577
  535         22     0.01190
  536         18     0.01188
  537         20     0.01231
  538          5     0.00678
  539         26     0.03448
  540         12     0.01363
  541          7     0.01171
  542         24     0.00983
  543         10     0.01162
  544          5     0.00938
  545         19     0.01389
  546         15     0.00884
  547         14     0.01162
  548         11     0.01248
  549         11     0.01244
  550         12     0.00979
  551         10     0.00837
  552         15     0.01588
  553         18     0.01215
  554         13     0.00888
  555         22     0.01606
  556         13     0.01195
  557         13     0.00833
  558         16     0.00911
  559         14     0.00849
  560         10     0.01061
  561         15     0.00922
  562         23     0.01562
  563         11     0.01076
  564         13     0.00876
  565          9     0.01054
  566          7     0.00737
  567          7     0.00716
  568         11     0.00812
  569         14     0.01078
  570         12     0.00937
  571         11     0.00775
  572          6     0.00707
  573         12     0.00769
  574         14     0.00852
  575          6     0.00685
  576         12     0.00928
  577          7     0.00712
  578          5     0.00626
  579         13     0.01444
  580          4     0.01117
  581         11     0.00900
  582         11     0.01261
  583          6     0.00730
  584         10     0.00810
  585          4     0.00703
  586          9     0.00774
  587         10     0.00763
  588         14     0.01273
  589         12     0.00813
  590          9     0.00735
  591          8     0.00901
  592         11     0.00795
  593          7     0.00684
  594          6     0.00685
  595          6     0.00685
  596          7     0.01299
  597          9     0.00780
  598          8     0.01163
  599          5     0.00662
  600          6     0.00693
  601          9     0.00779
  602          7     0.01251
  603          8     0.00995
  604          3     0.00573
  605          7     0.00686
  606          7     0.00764
  607          3     0.00620
  608          8     0.01228
  609          6     0.01219
  610          4     0.00668
  611          8     0.00720
  612          7     0.00987
  613          4     0.00975
  614          8     0.00730
  615          7     0.00745
  616          5     0.01013
  617          6     0.00706
  618          6     0.00711
  619          5     0.00919
  620          5     0.00664
  621          4     0.00616
  622          4     0.00660
  623          3     0.00608
  624          4     0.00654
  625          4     0.00954
  626          4     0.01204
  627          5     0.00672
  628          8     0.00878
  629          6     0.00712
  630          4     0.00654
  631          9     0.00820
  632          6     0.00682
  634          3     0.00608
  635          7     0.00650
  636          3     0.01364
  637          5     0.00711
  638          1     0.00588
  639          7     0.00982
  640          1     0.00616
  641          5     0.00635
  642          3     0.00569
  643          6     0.00705
  644          3     0.00618
  645          6     0.00718
  646          3     0.00580
  647          2     0.00599
  648          8     0.00875
  649          2     0.01650
  650          1     0.00596
  651          3     0.01146
  652          4     0.00656
  653          4     0.00590
  654          5     0.00960
  655          5     0.00689
  656          5     0.00647
  657          3     0.00574
  658          7     0.01012
  659          5     0.00632
  660          2     0.01029
  661          2     0.00573
  662          4     0.00615
  663          1     0.00560
  664          6     0.01116
  665          2     0.00572
  666          5     0.00904
  667          2     0.00556
  668          6     0.00660
  669          3     0.00599
  670          2     0.00573
  671          2     0.00583
  672          3     0.00549
  673          3     0.00857
  674          2     0.00593
  675          3     0.00571
  676          2     0.00576
  679          1     0.00536
  680          3     0.00726
  681          1     0.00603
  682          1     0.00575
  683          2     0.00540
  684          4     0.00652
  685          3     0.00978
  686          4     0.00638
  687          1     0.00537
  688          8     0.01405
  689          1     0.00811
  690          3     0.00553
  691          1     0.00521
  692          1     0.00558
  693          2     0.00594
  695          1     0.00556
  696          2     0.00549
  697          3     0.00606
  698          1     0.00559
  700          3     0.00570
  701          1     0.00556
  702          3     0.00554
  704          1     0.00517
  705          2     0.00550
  706          1     0.00553
  707          2     0.01108
  708          1     0.00573
  709          2     0.00574
  710          3     0.00561
  711          2     0.00578
  712          2     0.00535
  713          1     0.01139
  714          2     0.00544
  715          1     0.00561
  716          1     0.01086
  718          2     0.00559
  719          1     0.00568
  720          4     0.00941
  722          2     0.00558
  724          1     0.00908
  725          4     0.00886
  726          5     0.00661
  727          2     0.00519
  728          1     0.00532
  729          3     0.00587
  731          2     0.00527
  732          5     0.00920
  733          3     0.00602
  734          2     0.00510
  735          2     0.01002
  737          1     0.00552
  739          1     0.00535
  740          3     0.00600
  742          3     0.00579
  743          1     0.00522
  744          4     0.00572
  745          1     0.00543
  746          3     0.00591
  747          1     0.00534
  749          2     0.00552
  750          1     0.01418
  751          1     0.00515
  753          3     0.00600
  754          1     0.00544
  755          2     0.00989
  756          3     0.00983
  757          1     0.00534
  758          2     0.00529
  759          1     0.00581
  760          2     0.00510
  761          3     0.00583
  762          1     0.00566
  765          2     0.00538
  766          1     0.00544
  768          1     0.00865
  770          2     0.00572
  771          2     0.00559
  772          3     0.00595
  774          1     0.00512
  775          1     0.00521
  776          2     0.00546
  777          2     0.00580
  782          1     0.00563
  783          2     0.00539
  784          1     0.00521
  785          2     0.00526
  787          2     0.00545
  788          1     0.00561
  789          2     0.00539
  793          1     0.00541
  794          2     0.00584
  797          1     0.00533
  798          1     0.00527
  800          1     0.00861
  801          2     0.01019
  803          2     0.00563
  804          1     0.00537
  805          1     0.00934
  809          1     0.00591
  818          2     0.00599
  819          1     0.00546
  820          1     0.00570
  824          1     0.00496
  826          1     0.00552
  828          2     0.00557
  831          1     0.00552
  837          2     0.01009
  840          1     0.00550
  843          1     0.00530
  845          1     0.00555
  850          1     0.00566
  851          1     0.00593
  857          1     0.00565
  860          1     0.01191
  866          1     0.01103
  875          1     0.00571
  877          3     0.00886
  886          1     0.00542
  887          1     0.00853
  895          1     0.00574
  901          1     0.00537
  904          2     0.00539
  908          1     0.00585
  912          1     0.00560
  914          1     0.00547
  919          1     0.00568
  929          1     0.00530
  937          1     0.00531
  938          1     0.00566
  939          1     0.00560
  940          1     0.00565
  944          1     0.00558
  951          1     0.00547
  959          1     0.00487
  962          2     0.00599
  968          1     0.00599
  983          1     0.00534
  987          1     0.00546
  990          1     0.00548
  994          1     0.00606
  997          1     0.00575
 1021          1     0.00582
 1067          1     0.00550
took 781 iterations
Trial Time:          0.12129
    0          1     0.02185
   48          1     0.00616
   80          1     0.00600
   83          1     0.02856
   93          1     0.03080
   94          1     0.01537
  102          1     0.00893
  105          1     0.02036
  117          1     0.02117
  125          2     0.01726
  127          1     0.01367
  130          1     0.01987
  132          3     0.02318
  135          1     0.00550
  139          1     0.04828
  142          1     4.65774
  143         37     0.19814
  144         48     0.79124
  145         45     0.35554
  146         60     1.14059
  147         74     0.46831
  148         88     1.34261
  149        106     2.49743
  150        138     1.21654
  151        197     1.68372
  152        247     4.03768
  153        375     1.86780
  154        476     2.05343
  155        628     2.26692
  156        705     1.88109
  157        855     2.30434
  158       1014     2.01531
  159       1076     2.00713
  160       1204     1.80083
  161       1231     1.61654
  162       1352     1.59882
  163       1330     1.46923
  164       1456     1.46164
  165       1539     1.34829
  166       1510     1.26636
  167       1558     1.18277
  168       1626     1.19561
  169       1658     1.18590
  170       1585     1.00996
  171       1611     1.01964
  172       1691     0.90883
  173       1691     0.95624
  174       1703     0.92459
  175       1739     0.93311
  176       1651     0.80247
  177       1713     0.79932
  178       1712     0.77998
  179       1770     0.79807
  180       1783     0.77659
  181       1711     0.73303
  182       1723     0.70622
  183       1644     0.63145
  184       1710     0.66629
  185       1657     0.64386
  186       1719     0.62182
  187       1717     0.58769
  188       1735     0.61381
  189       1671     0.60476
  190       1731     0.61755
  191       1697     0.53711
  192       1713     0.57499
  193       1669     0.54889
  194       1811     0.55616
  195       1690     0.51375
  196       1707     0.52893
  197       1763     0.50656
  198       1689     0.51238
  199       1702     0.45524
  200       1701     0.42587
  201       1643     0.43727
  202       1621     0.41314
  203       1659     0.39926
  204       1683     0.40832
  205       1629     0.38357
  206       1622     0.38245
  207       1666     0.38226
  208       1682     0.36774
  209       1583     0.36032
  210       1645     0.35794
  211       1633     0.35134
  212       1607     0.34336
  213       1629     0.34695
  214       1578     0.33814
  215       1660     0.36761
  216       1618     0.33541
  217       1641     0.33372
  218       1589     0.31846
  219       1597     0.31204
  220       1643     0.32365
  221       1608     0.31171
  222       1585     0.31302
  223       1497     0.29171
  224       1608     0.30171
  225       1543     0.30020
  226       1551     0.27584
  227       1535     0.26755
  228       1491     0.26968
  229       1548     0.27284
  230       1499     0.25587
  231       1446     0.24360
  232       1513     0.25399
  233       1505     0.27648
  234       1484     0.27925
  235       1475     0.23456
  236       1524     0.24954
  237       1421     0.21830
  238       1429     0.21498
  239       1495     0.25792
  240       1430     0.23462
  241       1427     0.24094
  242       1458     0.22122
  243       1447     0.22940
  244       1446     0.21504
  245       1438     0.21845
  246       1406     0.22903
  247       1383     0.20487
  248       1399     0.20418
  249       1368     0.21008
  250       1421     0.20253
  251       1374     0.19912
  252       1351     0.19779
  253       1348     0.18214
  254       1345     0.17420
  255       1393     0.20307
  256       1304     0.16902
  257       1327     0.17538
  258       1337     0.19285
  259       1285     0.16244
  260       1347     0.18641
  261       1256     0.16822
  262       1235     0.15605
  263       1351     0.18207
  264       1365     0.18079
  265       1277     0.15762
  266       1298     0.16360
  267       1271     0.17422
  268       1312     0.15986
  269       1227     0.16820
  270       1227     0.15512
  271       1170     0.16780
  272       1263     0.15302
  273       1277     0.15633
  274       1275     0.17398
  275       1245     0.16279
  276       1242     0.15442
  277       1236     0.15334
  278       1218     0.13816
  279       1252     0.14292
  280       1211     0.16152
  281       1151     0.12916
  282       1180     0.13920
  283       1217     0.15042
  284       1198     0.14339
  285       1223     0.16761
  286       1092     0.13667
  287       1175     0.13893
  288       1231     0.13628
  289       1163     0.14242
  290       1185     0.14431
  291       1122     0.13938
  292       1120     0.12978
  293       1114     0.13028
  294       1154     0.13487
  295       1123     0.11907
  296       1116     0.12777
  297       1147     0.11985
  298       1095     0.12576
  299       1128     0.12935
  300       1078     0.13198
  301       1166     0.12262
  302       1117     0.12666
  303       1089     0.12169
  304       1049     0.11772
  305       1151     0.12672
  306       1114     0.11175
  307       1121     0.12193
  308       1104     0.10688
  309       1075     0.11198
  310       1090     0.12278
  311       1063     0.10157
  312       1111     0.10920
  313       1110     0.10591
  314       1055     0.10437
  315       1106     0.10414
  316       1035     0.10124
  317       1091     0.12039
  318       1058     0.10519
  319       1105     0.11557
  320       1007     0.10094
  321       1027     0.10758
  322       1048     0.10863
  323       1049     0.09867
  324        974     0.10165
  325        985     0.10933
  326       1047     0.11122
  327       1066     0.10829
  328       1012     0.09899
  329       1028     0.09673
  330        976     0.09864
  331       1044     0.10248
  332       1047     0.11638
  333        987     0.10305
  334       1059     0.09752
  335       1014     0.09282
  336       1002     0.09246
  337       1034     0.08880
  338        995     0.09327
  339        986     0.10586
  340        980     0.09020
  341        949     0.09345
  342        935     0.08830
  343        966     0.09566
  344        998     0.08735
  345        929     0.08543
  346        953     0.09247
  347        943     0.09271
  348       1005     0.09078
  349        941     0.08380
  350        964     0.09564
  351        970     0.09666
  352        970     0.09204
  353        937     0.08346
  354        916     0.08656
  355        944     0.07684
  356        883     0.09226
  357        939     0.08130
  358        914     0.09767
  359        875     0.07952
  360        945     0.07990
  361        903     0.07481
  362        923     0.07873
  363        887     0.07967
  364        890     0.07766
  365        895     0.09032
  366        905     0.08273
  367        901     0.07745
  368        898     0.09028
  369        933     0.08587
  370        912     0.08115
  371        909     0.08388
  372        878     0.07979
  373        862     0.07681
  374        880     0.08371
  375        871     0.07977
  376        873     0.07471
  377        862     0.07071
  378        880     0.07377
  379        891     0.06957
  380        878     0.08283
  381        822     0.07492
  382        894     0.06582
  383        818     0.06941
  384        843     0.07226
  385        883     0.06526
  386        875     0.07213
  387        858     0.06858
  388        835     0.06937
  389        893     0.08775
  390        819     0.06939
  391        885     0.07159
  392        837     0.06512
  393        861     0.07729
  394        838     0.07929
  395        788     0.07641
  396        810     0.06086
  397        858     0.06583
  398        768     0.06933
  399        761     0.07472
  400        792     0.06568
  401        792     0.06349
  402        638     0.07725
  403        780     0.06804
  404        745     0.06395
  405        744     0.06614
  406        679     0.05906
  407        647     0.05644
  408        632     0.07150
  409        586     0.06362
  410        592     0.06445
  411        547     0.04868
  412        521     0.05760
  413        513     0.06008
  414        474     0.04773
  415        443     0.04769
  416        425     0.05087
  417        436     0.04776
  418        402     0.04553
  419        409     0.03958
  420        407     0.04324
  421        434     0.05068
  422        382     0.05032
  423        366     0.04683
  424        362     0.04868
  425        357     0.04705
  426        331     0.03870
  427        316     0.03224
  428        334     0.04158
  429        350     0.04433
  430        288     0.03764
  431        288     0.03752
  432        289     0.03700
  433        288     0.04238
  434        246     0.03755
  435        264     0.03202
  436        276     0.03930
  437        255     0.03771
  438        246     0.03480
  439        246     0.04220
  440        203     0.03261
  441        243     0.03531
  442        250     0.03513
  443        215     0.02584
  444        216     0.03645
  445        210     0.03873
  446        197     0.02652
  447        233     0.03457
  448        195     0.02800
  449        205     0.02793
  450        176     0.03375
  451        186     0.03348
  452        201     0.03610
  453        177     0.03499
  454        182     0.03827
  455        166     0.03042
  456        187     0.03885
  457        160     0.02961
  458        164     0.02432
  459        176     0.03221
  460        158     0.02801
  461        154     0.02510
  462        161     0.03227
  463        164     0.02456
  464        152     0.02533
  465        138     0.02152
  466        138     0.02383
  467        145     0.02313
  468        155     0.02898
  469        143     0.02356
  470        136     0.01932
  471        111     0.02359
  472        123     0.02216
  473        140     0.02611
  474        128     0.02516
  475        122     0.02362
  476        115     0.02545
  477        107     0.02336
  478        131     0.02785
  479        136     0.02536
  480        116     0.02277
  481        118     0.03297
  482         92     0.02105
  483        120     0.02061
  484        114     0.02304
  485        103     0.02414
  486         91     0.01620
  487        117     0.02160
  488         92     0.02291
  489        101     0.01972
  490        106     0.02585
  491         98     0.02145
  492        117     0.02005
  493        100     0.01670
  494         97     0.02678
  495         84     0.01899
  496         88     0.02027
  497        114     0.02623
  498         83     0.02292
  499         95     0.02570
  500         74     0.02144
  501         82     0.02874
  502         81     0.02644
  503         66     0.01546
  504         80     0.02494
  505         79     0.01992
  506         75     0.02098
  507         80     0.02564
  508         81     0.03305
  509         79     0.02070
  510         77     0.02405
  511        100     0.02831
  512         75     0.02749
  513         79     0.02627
  514         70     0.02086
  515         72     0.02845
  516         73     0.02154
  517         70     0.02160
  518         68     0.02179
  519         63     0.01712
  520         65     0.01931
  521         66     0.02062
  522         75     0.02403
  523         57     0.02209
  524         66     0.02135
  525         82     0.02337
  526         50     0.01350
  527         63     0.01642
  528         48     0.01668
  529         48     0.01638
  530         60     0.02376
  531         54     0.01807
  532         58     0.01647
  533         59     0.02766
  534         44     0.02048
  535         63     0.02544
  536         53     0.01699
  537         69     0.02020
  538         62     0.02190
  539         58     0.01872
  540         59     0.02794
  541         55     0.02510
  542         47     0.02267
  543         42     0.01831
  544         54     0.01680
  545         54     0.01843
  546         51     0.01760
  547         43     0.01864
  548         44     0.01412
  549         45     0.01653
  550         54     0.02140
  551         47     0.01932
  552         38     0.01804
  553         48     0.02239
  554         32     0.01675
  555         42     0.01842
  556         35     0.02148
  557         43     0.01953
  558         41     0.01255
  559         42     0.01735
  560         37     0.02534
  561         46     0.02183
  562         44     0.01494
  563         52     0.02035
  564         46     0.01561
  565         34     0.01430
  566         36     0.01781
  567         53     0.02068
  568         41     0.01213
  569         39     0.01415
  570         34     0.01618
  571         31     0.01588
  572         44     0.02017
  573         36     0.01854
  574         32     0.01186
  575         34     0.01871
  576         36     0.01161
  577         34     0.01204
  578         34     0.01471
  579         36     0.01884
  580         47     0.01863
  581         32     0.01981
  582         33     0.01904
  583         31     0.01818
  584         36     0.01681
  585         30     0.01574
  586         29     0.01959
  587         23     0.01503
  588         27     0.01428
  589         32     0.01975
  590         32     0.01261
  591         25     0.00976
  592         25     0.01052
  593         27     0.01368
  594         28     0.01775
  595         29     0.01594
  596         23     0.01566
  597         34     0.01189
  598         28     0.01056
  599         16     0.00924
  600         25     0.01424
  601         26     0.01921
  602         25     0.01033
  603         27     0.01567
  604         21     0.01737
  605         25     0.01104
  606         28     0.01823
  607         20     0.00947
  608         22     0.01026
  609         28     0.01795
  610         26     0.01734
  611         16     0.01044
  612         20     0.00949
  613         30     0.01941
  614         24     0.01298
  615         29     0.01686
  616         20     0.01190
  617         33     0.02072
  618         22     0.00998
  619         26     0.01275
  620         29     0.01674
  621         24     0.01201
  622         16     0.01417
  623         27     0.01166
  624         15     0.01364
  625         22     0.01365
  626         27     0.01398
  627         17     0.01387
  628         25     0.01774
  629         18     0.01223
  630         18     0.01379
  631         13     0.01556
  632         19     0.01113
  633         14     0.00813
  634         17     0.01396
  635         13     0.01389
  636         14     0.01333
  637         14     0.01355
  638         17     0.01345
  639         12     0.00827
  640          9     0.00820
  641         17     0.01442
  642         19     0.00975
  643         13     0.01490
  644         14     0.00862
  645         13     0.00839
  646          9     0.01025
  647         12     0.01453
  648         16     0.01379
  649         10     0.01012
  650         15     0.00929
  651         16     0.01572
  652         20     0.01207
  653          8     0.00745
  654         15     0.01062
  655         16     0.01171
  656          9     0.00809
  657         11     0.00816
  658         13     0.00840
  659         15     0.00986
  660         16     0.00856
  661          7     0.00672
  662         10     0.01278
  663          8     0.00768
  664         13     0.00833
  665         14     0.00899
  666         12     0.01314
  667          9     0.01071
  668         13     0.00841
  669         15     0.01396
  670         11     0.00791
  671          5     0.00709
  672          9     0.00781
  673         11     0.00785
  674          9     0.00763
  675         16     0.01437
  676          5     0.00939
  677         11     0.00799
  678          7     0.01187
  679          6     0.00705
  680          8     0.00738
  681          6     0.00952
  682          5     0.00707
  683          8     0.00891
  684         10     0.00809
  685          6     0.01027
  686         14     0.01163
  687          7     0.00711
  688          7     0.00689
  689          5     0.00681
  690          4     0.00963
  691         10     0.01186
  692          8     0.01087
  693          8     0.00787
  694          7     0.00719
  695          6     0.00745
  696          7     0.01022
  697          4     0.00678
  698         10     0.01074
  699          8     0.00711
  700          9     0.00996
  701          5     0.00686
  702         12     0.00796
  703          3     0.00581
  704          8     0.01150
  705          4     0.00924
  706          9     0.01033
  707          5     0.00726
  708          5     0.00665
  709          3     0.00574
  710          3     0.00598
  711          3     0.00601
  712          2     0.00626
  713          4     0.00645
  714          9     0.00726
  715          3     0.00651
  716          9     0.00729
  717          6     0.00677
  718          6     0.00931
  719          4     0.00619
  720          3     0.00637
  721          9     0.01312
  722          2     0.00597
  723          2     0.00601
  724          7     0.00745
  725          5     0.00660
  726          5     0.01164
  727          6     0.00706
  728          7     0.00772
  729          5     0.00662
  730          8     0.00731
  731          5     0.00726
  732          1     0.03069
  733          3     0.01220
  734          2     0.00592
  735          5     0.00718
  736          4     0.01523
  737          5     0.00692
  738          4     0.00604
  739          3     0.00577
  740          5     0.00632
  741          3     0.00939
  742          3     0.00620
  743          2     0.00588
  744          2     0.00586
  745          4     0.00667
  746          5     0.00677
  747          3     0.00634
  748          4     0.00621
  749          3     0.00605
  750          5     0.01006
  751          8     0.00671
  752          2     0.00594
  753          4     0.00584
  754          6     0.00965
  756          4     0.01423
  757          6     0.01188
  758          6     0.00657
  759          3     0.00594
  760          3     0.01073
  761          3     0.00592
  762          1     0.00617
  763          2     0.00579
  764          9     0.00885
  765          2     0.00614
  766          1     0.00606
  768          3     0.00606
  769          1     0.00591
  770          2     0.00611
  771          3     0.00559
  772          3     0.00599
  773          1     0.00566
  774          1     0.00570
  775          2     0.01059
  776          2     0.00628
  777          1     0.00628
  778          1     0.00672
  779          3     0.00676
  780          1     0.01042
  781          3     0.00999
  782          2     0.00713
  783          1     0.00636
  784          5     0.01395
  785          4     0.00715
  786          1     0.00559
  787          1     0.00600
  788          1     0.00590
  789          4     0.00657
  790          2     0.00614
  791          1     0.00577
  792          2     0.00570
  793          4     0.00680
  795          1     0.00622
  796          3     0.01163
  797          2     0.00689
  798          2     0.00627
  799          1     0.00643
  800          1     0.00614
  801          1     0.00599
  803          1     0.00604
  804          2     0.00595
  805          2     0.00587
  806          2     0.00630
  807          3     0.00974
  809          4     0.01219
  810          3     0.00629
  812          2     0.01173
  815          1     0.00616
  816          3     0.00643
  817          1     0.00610
  819          1     0.00585
  820          1     0.00926
  821          4     0.00641
  822          4     0.00609
  823          2     0.00601
  824          5     0.00988
  825          2     0.00618
  826          1     0.00583
  827          2     0.00612
  828          4     0.00657
  830          1     0.00569
  831          4     0.01063
  832          1     0.00633
  833          3     0.00605
  834          2     0.00844
  835          1     0.00618
  836          3     0.00586
  837          1     0.00594
  840          3     0.04432
  841          3     0.00638
  842          1     0.00601
  844          2     0.00579
  845          1     0.00605
  847          2     0.00571
  849          4     0.00635
  852          2     0.01265
  853          2     0.01070
  855          1     0.00643
  856          2     0.00613
  857          2     0.00613
  858          1     0.00558
  859          1     0.00555
  860          1     0.00573
  861          3     0.00633
  862          2     0.00609
  863          1     0.00595
  865          2     0.00546
  866          1     0.00592
  869          1     0.00569
  870          3     0.00722
  872          1     0.00568
  874          2     0.00638
  875          1     0.00543
  876          2     0.00582
  877          2     0.00573
  879          2     0.00619
  881          2     0.00599
  884          1     0.00555
  885          1     0.00566
  887          1     0.00549
  888          1     0.01066
  889          3     0.00759
  890          2     0.00574
  891          1     0.00595
  892          1     0.00616
  894          2     0.00599
  899          1     0.00569
  900          1     0.00550
  901          1     0.01147
  913          1     0.00580
  914          1     0.00568
  915          1     0.00613
  916          2     0.00643
  919          1     0.00635
  921          1     0.00599
  924          2     0.01074
  926          1     0.00600
  927          1     0.00589
  933          1     0.00611
  935          1     0.00596
  938          1     0.00596
  939          1     0.00586
  942          1     0.00592
  953          1     0.00545
  956          2     0.01595
  966          1     0.00589
  967          1     0.00748
  972          1     0.00660
  973          2     0.00601
  983          1     0.01003
  991          2     0.00607
  997          1     0.00632
 1000          2     0.00600
 1002          1     0.00618
 1010          1     0.00609
 1015          1     0.00569
 1025          1     0.00611
 1027          1     0.00608
 1029          1     0.00547
 1030          1     0.00576
 1034          1     0.00567
 1040          1     0.00564
 1049          1     0.00551
 1052          1     0.00592
 1053          1     0.00542
 1058          1     0.00543
 1064          1     0.00572
 1073          1     0.00556
 1083          1     0.00571
 1084          1     0.00572
 1086          1     0.00570
 1093          1     0.00637
 1108          1     0.00606
 1163          1     0.00510
took 787 iterations
Trial Time:          0.12362
    0          1     0.03084
  174          1     0.94702
  175          6     0.12399
  176          4     0.06963
  177          7     0.22205
  178          4     0.05943
  179         10     0.81080
  180         21     0.58519
  181         25     5.88477
  182        107     0.68232
  183        145     1.28502
  184        165     3.59649
  185        255     1.81642
  186        311     2.87711
  187        461     1.71954
  188        535     1.82479
  189        657     2.16569
  190        751     1.92117
  191        884     1.90033
  192        950     1.87727
  193       1136     1.87908
  194       1196     1.64548
  195       1245     1.65674
  196       1333     1.47830
  197       1382     1.47659
  198       1446     1.40655
  199       1491     1.30318
  200       1503     1.18590
  201       1576     1.20763
  202       1557     1.09197
  203       1621     1.13920
  204       1619     1.12934
  205       1687     1.03994
  206       1695     0.99353
  207       1675     0.91828
  208       1741     0.92109
  209       1628     0.79900
  210       1659     0.80821
  211       1698     0.81645
  212       1695     0.73714
  213       1678     0.75273
  214       1680     0.68674
  215       1705     0.72752
  216       1775     0.70083
  217       1677     0.65441
  218       1723     0.67139
  219       1709     0.64725
  220       1713     0.65711
  221       1684     0.58798
  222       1794     0.65653
  223       1725     0.57969
  224       1690     0.61524
  225       1721     0.56854
  226       1750     0.56637
  227       1659     0.51532
  228       1678     0.51057
  229       1688     0.49447
  230       1677     0.49261
  231       1600     0.46098
  232       1716     0.48874
  233       1631     0.47161
  234       1610     0.44610
  235       1667     0.48855
  236       1717     0.43774
  237       1660     0.42729
  238       1672     0.42010
  239       1586     0.41444
  240       1601     0.38520
  241       1650     0.40965
  242       1573     0.36987
  243       1610     0.38120
  244       1684     0.37729
  245       1583     0.35100
  246       1586     0.34825
  247       1648     0.35767
  248       1636     0.34576
  249       1639     0.34882
  250       1654     0.34054
  251       1585     0.33131
  252       1613     0.33218
  253       1560     0.29895
  254       1654     0.34441
  255       1532     0.32214
  256       1657     0.30131
  257       1538     0.30429
  258       1540     0.29381
  259       1565     0.30053
  260       1506     0.27495
  261       1484     0.27288
  262       1560     0.29843
  263       1489     0.26221
  264       1496     0.27953
  265       1457     0.24950
  266       1465     0.25518
  267       1469     0.26840
  268       1425     0.24582
  269       1556     0.27515
  270       1525     0.24624
  271       1412     0.23401
  272       1455     0.25426
  273       1511     0.22909
  274       1450     0.24318
  275       1384     0.22376
  276       1385     0.20789
  277       1482     0.23430
  278       1432     0.22473
  279       1430     0.22160
  280       1423     0.22555
  281       1404     0.21634
  282       1331     0.20826
  283       1430     0.20649
  284       1360     0.19090
  285       1384     0.19476
  286       1373     0.19888
  287       1341     0.21192
  288       1301     0.18890
  289       1464     0.19547
  290       1307     0.16482
  291       1291     0.17444
  292       1349     0.18596
  293       1338     0.18509
  294       1357     0.18453
  295       1314     0.17787
  296       1327     0.19689
  297       1359     0.18558
  298       1272     0.15832
  299       1326     0.18125
  300       1286     0.15469
  301       1295     0.14886
  302       1274     0.16260
  303       1254     0.15370
  304       1296     0.17327
  305       1257     0.15218
  306       1204     0.14455
  307       1249     0.13967
  308       1185     0.14992
  309       1284     0.16653
  310       1252     0.15190
  311       1229     0.16231
  312       1270     0.14415
  313       1215     0.15329
  314       1278     0.16993
  315       1192     0.16826
  316       1232     0.13236
  317       1169     0.13044
  318       1216     0.14945
  319       1158     0.13258
  320       1137     0.13478
  321       1193     0.14791
  322       1134     0.14203
  323       1145     0.15684
  324       1129     0.12689
  325       1151     0.12264
  326       1125     0.13641
  327       1154     0.13814
  328       1165     0.14366
  329       1137     0.12917
  330       1114     0.12552
  331       1153     0.14325
  332       1093     0.12328
  333       1042     0.11509
  334       1204     0.12403
  335       1148     0.12052
  336       1136     0.11725
  337       1083     0.13088
  338       1113     0.12708
  339       1112     0.12153
  340       1128     0.10748
  341       1068     0.12165
  342       1052     0.11389
  343       1103     0.10890
  344       1054     0.10685
  345       1131     0.10448
  346       1116     0.10596
  347       1127     0.12499
  348       1110     0.12118
  349       1108     0.12374
  350       1063     0.10972
  351       1046     0.10499
  352       1072     0.12231
  353       1046     0.10080
  354       1042     0.11390
  355       1050     0.11576
  356       1037     0.10334
  357       1017     0.10728
  358       1043     0.11495
  359        984     0.10358
  360       1055     0.10689
  361       1077     0.11412
  362       1010     0.10626
  363       1056     0.10431
  364        973     0.09695
  365       1039     0.11099
  366       1006     0.10132
  367        963     0.08398
  368        937     0.08799
  369       1007     0.10001
  370        986     0.09995
  371       1016     0.09797
  372       1020     0.09463
  373        998     0.10375
  374       1010     0.10219
  375        975     0.09006
  376        905     0.08696
  377        975     0.09498
  378        964     0.09090
  379        911     0.07899
  380        966     0.09051
  381        982     0.09172
  382        933     0.08637
  383        945     0.09428
  384        971     0.08867
  385        999     0.10196
  386        911     0.08190
  387        925     0.07848
  388        936     0.08279
  389        923     0.08151
  390        941     0.08799
  391        935     0.09075
  392        885     0.08223
  393        910     0.08516
  394        885     0.08379
  395        902     0.09365
  396        923     0.07332
  397        929     0.08796
  398        928     0.08358
  399        938     0.09259
  400        868     0.08022
  401        907     0.07343
  402        888     0.07353
  403        933     0.07795
  404        913     0.08956
  405        912     0.08470
  406        890     0.07974
  407        908     0.08014
  408        828     0.07057
  409        896     0.09792
  410        884     0.08034
  411        864     0.07598
  412        839     0.07389
  413        880     0.07469
  414        884     0.07353
  415        897     0.07133
  416        828     0.06987
  417        817     0.07267
  418        916     0.07727
  419        913     0.07701
  420        833     0.06204
  421        892     0.08229
  422        853     0.08158
  423        843     0.06357
  424        893     0.07764
  425        822     0.06739
  426        836     0.06900
  427        829     0.07436
  428        842     0.06286
  429        820     0.07259
  430        861     0.07534
  431        815     0.06471
  432        786     0.07066
  433        815     0.06097
  434        756     0.05962
  435        828     0.06662
  436        784     0.06176
  437        720     0.06950
  438        767     0.07814
  439        734     0.06845
  440        691     0.06220
  441        667     0.05865
  442        588     0.06514
  443        595     0.05469
  444        544     0.05834
  445        530     0.04773
  446        546     0.05033
  447        516     0.05466
  448        488     0.05154
  449        456     0.05007
  450        457     0.05446
  451        438     0.04498
  452        438     0.05670
  453        383     0.04051
  454        389     0.04701
  455        390     0.04688
  456        391     0.04090
  457        362     0.04337
  458        351     0.03793
  459        349     0.04445
  460        317     0.04624
  461        329     0.04154
  462        293     0.03630
  463        317     0.04537
  464        313     0.03579
  465        275     0.03198
  466        301     0.04344
  467        273     0.03726
  468        291     0.04416
  469        286     0.03792
  470        266     0.03778
  471        274     0.03694
  472        248     0.04139
  473        250     0.03567
  474        212     0.03438
  475        216     0.02751
  476        241     0.04135
  477        236     0.02980
  478        218     0.02488
  479        243     0.03153
  480        230     0.03135
  481        207     0.03009
  482        185     0.04279
  483        223     0.04090
  484        220     0.03366
  485        177     0.03086
  486        196     0.03070
  487        184     0.03459
  488        197     0.03421
  489        179     0.03207
  490        186     0.03479
  491        154     0.02355
  492        143     0.03261
  493        167     0.02907
  494        153     0.03115
  495        161     0.02467
  496        182     0.02980
  497        140     0.02629
  498        145     0.02080
  499        143     0.02191
  500        152     0.02723
  501        146     0.02193
  502        155     0.02188
  503        151     0.02701
  504        139     0.02508
  505        143     0.02397
  506        152     0.02644
  507        135     0.02598
  508        113     0.04572
  509        127     0.02819
  510        109     0.02278
  511        105     0.02225
  512        113     0.02138
  513        115     0.02555
  514        130     0.02551
  515        104     0.01689
  516        117     0.02501
  517        130     0.02722
  518        114     0.01994
  519        104     0.03033
  520        108     0.02278
  521         92     0.01941
  522         92     0.01978
  523        109     0.02124
  524         94     0.02377
  525         98     0.01948
  526         87     0.01824
  527        102     0.01945
  528         95     0.02037
  529         92     0.02638
  530         84     0.02317
  531         76     0.01559
  532        111     0.02739
  533         82     0.01918
  534         79     0.01799
  535         78     0.02473
  536         82     0.01889
  537         98     0.01823
  538         84     0.02645
  539         82     0.02316
  540         85     0.02581
  541         90     0.01897
  542         74     0.02160
  543         81     0.02229
  544         89     0.02277
  545         70     0.01568
  546         76     0.02377
  547         81     0.02225
  548         78     0.02554
  549         66     0.02075
  550         75     0.02427
  551         83     0.02528
  552         57     0.02149
  553         71     0.02250
  554         69     0.02615
  555         74     0.01689
  556         81     0.01950
  557         70     0.02216
  558         61     0.01719
  559         51     0.01824
  560         63     0.02304
  561         61     0.02024
  562         55     0.02330
  563         63     0.02043
  564         47     0.01744
  565         51     0.01704
  566         57     0.01666
  567         58     0.01870
  568         56     0.01452
  569         50     0.02055
  570         56     0.01704
  571         52     0.01339
  572         65     0.02143
  573         55     0.01836
  574         58     0.01911
  575         50     0.02042
  576         54     0.01567
  577         55     0.02195
  578         50     0.02390
  579         47     0.02245
  580         42     0.02380
  581         48     0.01255
  582         48     0.01993
  583         58     0.01933
  584         48     0.01779
  585         45     0.02081
  586         35     0.01610
  587         46     0.01777
  588         41     0.01407
  589         35     0.01680
  590         38     0.01587
  591         40     0.02105
  592         45     0.02237
  593         37     0.01528
  594         51     0.01776
  595         49     0.02066
  596         34     0.01328
  597         52     0.01889
  598         45     0.01348
  599         36     0.01538
  600         45     0.01409
  601         38     0.01815
  602         44     0.01910
  603         34     0.01523
  604         41     0.01846
  605         31     0.01876
  606         37     0.01907
  607         48     0.02055
  608         40     0.01580
  609         35     0.01704
  610         33     0.01324
  611         45     0.02276
  612         38     0.01800
  613         33     0.01545
  614         43     0.01613
  615         38     0.01753
  616         36     0.01780
  617         29     0.01622
  618         19     0.01608
  619         28     0.01367
  620         29     0.01790
  621         34     0.01727
  622         18     0.00884
  623         29     0.01542
  624         18     0.00899
  625         22     0.01273
  626         22     0.01299
  627         29     0.01180
  628         25     0.01531
  629         34     0.02188
  630         27     0.01664
  631         40     0.01631
  632         24     0.01644
  633         26     0.01484
  634         25     0.01372
  635         26     0.01923
  636         23     0.01482
  637         33     0.01498
  638         25     0.01473
  639         27     0.01588
  640         19     0.01206
  641         21     0.01002
  642         18     0.01117
  643         22     0.01440
  644         17     0.01160
  645         18     0.00962
  646         24     0.01428
  647         29     0.01902
  648         24     0.01736
  649         24     0.01986
  650         39     0.01675
  651         17     0.00884
  652         30     0.01644
  653         27     0.01335
  654         30     0.02032
  655         25     0.01020
  656         24     0.01533
  657         22     0.00923
  658         21     0.00955
  659         23     0.01469
  660         20     0.01353
  661         24     0.02036
  662         20     0.01388
  663         19     0.01311
  664         21     0.01458
  665         23     0.02073
  666         12     0.01209
  667         20     0.01095
  668          7     0.00717
  669         13     0.01383
  670         15     0.00857
  671         16     0.00862
  672         12     0.01229
  673         13     0.01254
  674         13     0.00924
  675          7     0.00743
  676         13     0.00827
  677         12     0.00839
  678         15     0.01283
  679         11     0.00813
  680         15     0.01423
  681         12     0.01270
  682         13     0.01350
  683         21     0.01358
  684         15     0.01121
  685         13     0.00848
  686         20     0.01229
  687         20     0.01362
  688         15     0.00864
  689         13     0.00811
  690         16     0.01154
  691         11     0.01107
  692          9     0.00773
  693         14     0.00870
  694         12     0.01117
  695          5     0.00663
  696         10     0.00799
  697         14     0.00898
  698          9     0.00820
  699         17     0.01251
  700          6     0.00705
  701         11     0.01097
  702          7     0.01019
  703         11     0.01180
  704         10     0.00907
  705          7     0.00729
  706          8     0.00738
  707          8     0.00730
  708          8     0.01293
  709          5     0.00693
  710         14     0.00834
  711          5     0.00957
  712         16     0.00914
  713          7     0.00977
  714          9     0.01208
  715          7     0.00730
  716          6     0.00677
  717         13     0.01115
  718          7     0.00721
  719         11     0.00829
  720          5     0.00916
  721         10     0.01039
  722          7     0.00770
  723         13     0.00849
  724          4     0.00641
  725          7     0.01080
  726          8     0.00889
  727         13     0.01379
  728          8     0.01297
  729          8     0.00757
  730          8     0.00783
  731          6     0.00676
  732          3     0.00616
  733          8     0.00816
  734          7     0.00828
  735          4     0.00668
  736          3     0.00573
  737          6     0.00724
  738          4     0.01020
  739         12     0.00771
  740          6     0.01015
  741          3     0.01136
  742          8     0.00749
  743          6     0.00699
  744          3     0.00908
  745          4     0.00650
  746          6     0.00966
  747          6     0.00720
  748          6     0.00961
  749          5     0.00695
  750          4     0.01010
  751          6     0.00719
  752          3     0.00644
  753          6     0.00922
  754          4     0.00861
  755          2     0.01215
  756          6     0.00698
  757         10     0.00793
  758          2     0.00562
  759          5     0.00670
  760          5     0.00620
  761          5     0.00931
  762          7     0.00720
  763          3     0.00598
  764          5     0.01092
  765          1     0.00595
  766          7     0.00700
  767          4     0.00686
  768          3     0.00632
  769          3     0.00618
  770          5     0.01023
  771          4     0.00674
  772          1     0.00611
  773          5     0.00662
  774          5     0.00939
  775          4     0.00686
  776          4     0.01054
  777          3     0.00621
  778          2     0.00609
  779          4     0.01120
  780          4     0.01241
  781          3     0.00610
  782          2     0.00581
  783          6     0.01105
  784          7     0.00703
  785          4     0.01147
  786          5     0.00690
  787          4     0.01053
  788          3     0.00611
  789          7     0.01147
  790          1     0.00614
  791          1     0.00587
  792          1     0.00588
  793          1     0.00536
  794          3     0.00893
  795          5     0.00692
  796          4     0.00913
  797          5     0.00641
  798          7     0.00933
  799          2     0.00562
  800          4     0.00611
  801          4     0.00611
  802          3     0.00600
  803          2     0.00555
  805          1     0.00740
  806          1     0.00615
  807          1     0.00633
  808          2     0.00575
  810          1     0.01058
  812          2     0.00594
  813          5     0.01398
  814          5     0.00654
  815          6     0.00669
  816          1     0.00601
  817          2     0.00581
  818          1     0.00540
  819          1     0.00574
  821          5     0.00973
  822          1     0.00531
  823          3     0.00614
  824          3     0.00616
  825          3     0.00603
  826          2     0.00608
  827          1     0.00534
  829          1     0.00542
  830          1     0.00594
  832          2     0.00586
  833          2     0.01142
  834          1     0.00581
  835          1     0.00574
  836          2     0.00579
  837          1     0.00550
  838          3     0.01174
  839          1     0.00557
  840          4     0.00664
  841          2     0.01115
  842          2     0.00573
  843          2     0.00595
  844          1     0.00570
  845          3     0.00561
  847          2     0.00552
  850          2     0.00691
  851          2     0.01041
  852          4     0.00630
  853          2     0.00581
  854          1     0.00901
  855          1     0.00556
  856          1     0.00525
  857          3     0.00584
  858          6     0.00680
  859          2     0.00554
  860          2     0.00983
  861          4     0.00654
  862          1     0.00534
  863          1     0.00585
  864          1     0.00555
  865          1     0.00558
  868          2     0.00567
  869          1     0.00567
  870          5     0.00717
  871          4     0.00627
  872          1     0.00570
  873          1     0.00581
  875          2     0.01437
  876          1     0.00570
  877          2     0.00564
  878          1     0.00564
  879          1     0.00588
  880          2     0.00869
  881          3     0.01023
  882          2     0.00552
  883          1     0.00520
  884          3     0.00556
  885          2     0.00563
  886          1     0.00579
  890          1     0.00546
  892          3     0.00619
  893          2     0.00548
  896          2     0.00580
  897          1     0.00571
  898          2     0.00552
  901          2     0.00552
  902          1     0.00558
  903          1     0.00555
  904          2     0.00559
  905          1     0.00545
  906          2     0.03179
  907          1     0.00665
  908          2     0.00568
  909          2     0.00572
  910          1     0.00605
  912          1     0.00602
  914          2     0.00605
  915          1     0.00562
  916          1     0.00576
  917          1     0.00588
  919          1     0.00596
  920          1     0.00628
  922          2     0.00563
  923          1     0.00567
  925          1     0.00589
  926          1     0.00912
  928          2     0.00588
  929          1     0.00568
  930          1     0.01101
  932          1     0.01030
  934          1     0.00580
  935          1     0.00584
  944          1     0.00566
  945          1     0.00627
  947          2     0.00599
  951          1     0.00588
  954          1     0.00548
  960          1     0.00663
  961          1     0.00609
  962          1     0.00625
  966          1     0.00553
  968          3     0.00809
  974          1     0.00564
  976          1     0.00579
  982          2     0.00595
  990          1     0.01034
  991          1     0.01123
 1002          1     0.00938
 1003          2     0.00626
 1007          1     0.00610
 1012          1     0.00927
 1017          1     0.00568
 1020          1     0.00606
 1026          1     0.00599
 1029          2     0.00580
 1034          1     0.00522
 1037          1     0.00557
 1039          1     0.00548
 1044          1     0.00597
 1054          1     0.00557
 1062          1     0.00584
 1063          1     0.00551
 1064          1     0.00523
 1065          1     0.00562
 1074          1     0.00570
 1084          1     0.00587
 1087          2     0.00560
 1089          1     0.00526
 1093          1     0.00565
 1108          1     0.00526
 1112          1     0.00535
 1115          1     0.00542
 1119          1     0.00572
 1122          1     0.00615
 1152          1     0.00626
 1197          1     0.00508
took 779 iterations
Trial Time:          0.12232
    0          1     0.01792
   29          1     0.00604
   53          1     0.00588
   68          1     0.00506
   69          1     0.00590
  128          1     0.14597
  132          1     0.01179
  133          1     0.08633
  135          1     0.11012
  137          1     0.03377
  139          2     0.28331
  140          7     0.23059
  141          1     0.16986
  142          5     0.43145
  143          6     0.62330
  144         15     2.05728
  145         34     1.66101
  146         66     2.34548
  147         91     3.78661
  148        165     4.37773
  149        260     1.88943
  150        299     1.95678
  151        461     2.21234
  152        536     1.59213
  153        704     2.00781
  154        817     1.85038
  155        893     2.04783
  156       1043     1.77960
  157       1077     1.74118
  158       1160     1.64519
  159       1260     1.51726
  160       1372     1.54534
  161       1414     1.46570
  162       1460     1.34323
  163       1510     1.33132
  164       1502     1.30032
  165       1582     1.30473
  166       1680     1.21225
  167       1669     1.16985
  168       1632     1.03603
  169       1550     0.89907
  170       1644     0.93724
  171       1624     0.93001
  172       1648     0.89838
  173       1726     0.89434
  174       1681     0.82044
  175       1700     0.75452
  176       1681     0.79289
  177       1703     0.73296
  178       1668     0.71669
  179       1665     0.67470
  180       1620     0.64152
  181       1720     0.65712
  182       1687     0.62530
  183       1755     0.62979
  184       1636     0.57648
  185       1743     0.67939
  186       1743     0.64537
  187       1769     0.62391
  188       1662     0.56876
  189       1719     0.57176
  190       1632     0.49460
  191       1623     0.48657
  192       1739     0.56117
  193       1793     0.56746
  194       1658     0.52050
  195       1699     0.49519
  196       1722     0.50138
  197       1609     0.44604
  198       1717     0.47217
  199       1654     0.44267
  200       1657     0.43459
  201       1634     0.41173
  202       1678     0.41907
  203       1644     0.38456
  204       1661     0.39937
  205       1539     0.35992
  206       1619     0.37454
  207       1584     0.37529
  208       1570     0.34462
  209       1576     0.33843
  210       1595     0.35791
  211       1660     0.36433
  212       1612     0.34980
  213       1589     0.34914
  214       1610     0.32650
  215       1599     0.32457
  216       1628     0.31412
  217       1628     0.32078
  218       1518     0.32215
  219       1591     0.31317
  220       1629     0.31830
  221       1642     0.32820
  222       1578     0.29652
  223       1608     0.30993
  224       1474     0.27553
  225       1537     0.31220
  226       1511     0.28132
  227       1493     0.26696
  228       1492     0.25927
  229       1464     0.25932
  230       1493     0.27378
  231       1461     0.25583
  232       1446     0.24817
  233       1459     0.26160
  234       1480     0.25911
  235       1532     0.26182
  236       1435     0.22933
  237       1449     0.23889
  238       1427     0.22616
  239       1463     0.23399
  240       1407     0.22037
  241       1442     0.24256
  242       1392     0.22025
  243       1426     0.21910
  244       1466     0.21377
  245       1390     0.22164
  246       1359     0.19911
  247       1414     0.21776
  248       1363     0.19860
  249       1362     0.19837
  250       1350     0.18660
  251       1414     0.21384
  252       1366     0.18471
  253       1306     0.17545
  254       1347     0.18704
  255       1390     0.18363
  256       1361     0.18539
  257       1311     0.17880
  258       1350     0.18583
  259       1302     0.17454
  260       1323     0.20967
  261       1280     0.17777
  262       1285     0.16940
  263       1320     0.16400
  264       1208     0.16050
  265       1318     0.16609
  266       1257     0.16699
  267       1223     0.16284
  268       1268     0.16784
  269       1256     0.16026
  270       1182     0.13917
  271       1243     0.14619
  272       1268     0.16233
  273       1276     0.17391
  274       1229     0.15283
  275       1233     0.15557
  276       1260     0.14693
  277       1235     0.13894
  278       1225     0.14767
  279       1153     0.13812
  280       1233     0.13226
  281       1215     0.15385
  282       1152     0.13200
  283       1171     0.14376
  284       1184     0.14951
  285       1180     0.13833
  286       1185     0.14454
  287       1142     0.12537
  288       1159     0.15185
  289       1164     0.15193
  290       1134     0.13442
  291       1175     0.13384
  292       1168     0.14274
  293       1203     0.12854
  294       1120     0.12222
  295       1138     0.13387
  296       1099     0.12061
  297       1158     0.13043
  298       1156     0.11822
  299       1104     0.12940
  300       1075     0.12065
  301       1090     0.12347
  302       1101     0.12527
  303       1144     0.13524
  304       1120     0.10981
  305       1127     0.13179
  306       1114     0.11736
  307       1117     0.13169
  308       1060     0.10645
  309       1064     0.12026
  310       1105     0.11478
  311       1100     0.11313
  312       1097     0.11445
  313       1076     0.09936
  314       1074     0.11859
  315       1108     0.12466
  316       1086     0.11865
  317        995     0.10113
  318        997     0.10191
  319       1040     0.09704
  320       1060     0.10229
  321        986     0.10909
  322       1082     0.10862
  323       1018     0.11525
  324       1049     0.10471
  325       1033     0.10452
  326       1020     0.11120
  327        979     0.09449
  328       1032     0.12955
  329        976     0.08905
  330        972     0.10460
  331       1046     0.09424
  332       1101     0.09843
  333       1019     0.09863
  334        998     0.09404
  335       1024     0.09443
  336       1002     0.09182
  337        955     0.07993
  338        926     0.08745
  339        957     0.09627
  340        945     0.08640
  341        941     0.08861
  342       1013     0.10081
  343        940     0.09229
  344        998     0.09233
  345        920     0.07802
  346        932     0.08602
  347        961     0.09396
  348        950     0.09320
  349        890     0.08084
  350        924     0.08514
  351        939     0.07910
  352        944     0.08885
  353        935     0.08509
  354        953     0.08479
  355        967     0.09260
  356        897     0.08060
  357        938     0.08998
  358        896     0.07719
  359        916     0.08947
  360        893     0.08190
  361        872     0.07290
  362        939     0.08294
  363        890     0.06865
  364        896     0.08986
  365        867     0.08001
  366        860     0.07898
  367        922     0.07908
  368        899     0.08229
  369        922     0.07904
  370        908     0.07681
  371        864     0.07599
  372        865     0.07816
  373        844     0.07146
  374        858     0.08769
  375        865     0.07820
  376        922     0.07377
  377        859     0.07432
  378        890     0.07433
  379        890     0.07734
  380        872     0.07905
  381        883     0.08184
  382        909     0.07987
  383        854     0.06784
  384        795     0.06060
  385        881     0.07417
  386        888     0.08037
  387        875     0.06898
  388        847     0.07524
  389        877     0.07560
  390        846     0.06848
  391        866     0.07741
  392        814     0.05946
  393        839     0.06063
  394        822     0.06843
  395        798     0.06224
  396        827     0.06735
  397        822     0.06470
  398        791     0.05938
  399        810     0.06954
  400        780     0.06911
  401        809     0.07792
  402        754     0.07153
  403        671     0.05528
  404        670     0.06496
  405        648     0.06332
  406        645     0.06748
  407        604     0.05570
  408        557     0.05133
  409        551     0.05542
  410        501     0.05177
  411        513     0.04515
  412        473     0.05090
  413        442     0.04817
  414        450     0.04780
  415        461     0.04843
  416        455     0.04774
  417        446     0.04625
  418        423     0.04345
  419        400     0.04632
  420        384     0.04302
  421        346     0.05163
  422        344     0.04449
  423        301     0.04069
  424        356     0.05327
  425        316     0.04504
  426        333     0.03985
  427        316     0.04458
  428        291     0.03472
  429        290     0.03654
  430        287     0.04628
  431        289     0.03979
  432        285     0.03658
  433        282     0.03649
  434        293     0.04334
  435        246     0.03845
  436        225     0.03027
  437        251     0.03633
  438        241     0.03123
  439        242     0.03885
  440        227     0.03438
  441        205     0.02713
  442        216     0.03141
  443        233     0.03802
  444        200     0.02805
  445        202     0.02602
  446        216     0.02810
  447        226     0.03349
  448        194     0.03468
  449        197     0.03118
  450        194     0.03337
  451        193     0.03219
  452        180     0.03204
  453        158     0.03079
  454        185     0.03475
  455        188     0.03753
  456        158     0.02582
  457        195     0.03086
  458        157     0.03289
  459        132     0.02536
  460        157     0.02625
  461        165     0.02241
  462        139     0.01929
  463        168     0.02478
  464        160     0.02925
  465        129     0.01976
  466        136     0.02184
  467        145     0.02877
  468        153     0.02517
  469        127     0.02034
  470        139     0.02329
  471        123     0.02435
  472        132     0.02418
  473        128     0.02469
  474        135     0.02771
  475        117     0.02496
  476        106     0.02561
  477        122     0.02917
  478        104     0.01812
  479        123     0.02474
  480        127     0.02316
  481        129     0.02391
  482         95     0.01775
[...]
  387       1493     0.28197
  388       1600     0.30279
  389       1498     0.26728
  390       1483     0.26133
  391       1565     0.27895
  392       1518     0.28358
  393       1500     0.27621
  394       1501     0.24676
  395       1494     0.27175
  396       1462     0.25537
  397       1470     0.26865
  398       1424     0.22768
  399       1451     0.24116
  400       1457     0.23906
  401       1505     0.23579
  402       1494     0.23047
  403       1522     0.24515
  404       1432     0.23155
  405       1363     0.22562
  406       1436     0.22037
  407       1457     0.21690
  408       1425     0.20766
  409       1364     0.21030
  410       1459     0.23242
  411       1421     0.20019
  412       1334     0.20651
  413       1380     0.22036
  414       1359     0.19337
  415       1385     0.20856
  416       1322     0.19428
  417       1384     0.19897
  418       1334     0.17909
  419       1360     0.19760
  420       1328     0.17828
  421       1391     0.20357
  422       1326     0.19030
  423       1297     0.18083
  424       1311     0.19414
  425       1291     0.18360
  426       1340     0.16977
  427       1295     0.16931
  428       1287     0.15765
  429       1329     0.16543
  430       1310     0.16393
  431       1266     0.15583
  432       1256     0.16569
  433       1241     0.15299
  434       1269     0.16297
  435       1267     0.16177
  436       1314     0.18016
  437       1296     0.15124
  438       1218     0.14620
  439       1249     0.13629
  440       1272     0.14032
  441       1216     0.14997
  442       1220     0.15257
  443       1170     0.13730
  444       1181     0.15097
  445       1190     0.14464
  446       1141     0.14330
  447       1186     0.14807
  448       1155     0.15859
  449       1213     0.14138
  450       1145     0.16959
  451       1235     0.15781
  452       1166     0.13567
  453       1161     0.15580
  454       1140     0.12618
  455       1158     0.14327
  456       1159     0.12400
  457       1148     0.13744
  458       1154     0.12660
  459       1123     0.12816
  460       1148     0.13209
  461       1110     0.13765
  462       1072     0.11021
  463       1123     0.12183
  464       1070     0.12595
  465       1067     0.09976
  466       1100     0.12374
  467       1102     0.12605
  468       1076     0.13550
  469       1175     0.12671
  470       1124     0.13454
  471       1108     0.10613
  472       1117     0.12204
  473       1061     0.10222
  474       1027     0.11294
  475       1092     0.12242
  476       1114     0.10590
  477       1056     0.12116
  478       1117     0.10980
  479       1060     0.10708
  480       1050     0.10507
  481       1039     0.09980
  482       1042     0.11027
  483       1060     0.11585
  484       1013     0.09982
  485       1043     0.11765
  486       1001     0.10037
  487       1101     0.12259
  488       1034     0.09846
  489       1069     0.09950
  490       1084     0.10635
  491       1003     0.10398
  492       1004     0.10776
  493        994     0.09748
  494       1001     0.08823
  495       1029     0.12061
  496        961     0.09682
  497       1075     0.09882
  498        969     0.09089
  499        975     0.09599
  500       1033     0.08927
  501       1021     0.08601
  502        951     0.08257
  503        987     0.08948
  504        972     0.09245
  505        967     0.08617
  506        990     0.10007
  507        940     0.08791
  508        973     0.09691
  509        924     0.08824
  510        951     0.09284
  511        962     0.09628
  512        915     0.07739
  513        914     0.08699
  514        989     0.09551
  515       1012     0.09616
  516        929     0.07772
  517        949     0.07748
  518        942     0.09872
  519        884     0.08903
  520        949     0.08821
  521        889     0.07408
  522        881     0.07666
  523        902     0.07315
  524        941     0.09854
  525        879     0.07246
  526        877     0.07855
  527        913     0.08857
  528        879     0.07261
  529        910     0.07699
  530        908     0.08539
  531        882     0.08483
  532        878     0.08753
  533        904     0.08278
  534        934     0.08219
  535        910     0.08501
  536        884     0.08273
  537        820     0.07860
  538        889     0.07439
  539        891     0.07547
  540        868     0.08416
  541        843     0.07397
  542        868     0.07474
  543        862     0.07099
  544        899     0.08910
  545        872     0.07060
  546        822     0.06566
  547        876     0.06868
  548        857     0.07961
  549        868     0.06824
  550        870     0.06955
  551        871     0.08043
  552        889     0.06617
  553        866     0.07219
  554        822     0.06998
  555        830     0.07125
  556        910     0.07195
  557        819     0.06673
  558        841     0.07117
  559        853     0.07022
  560        839     0.07689
  561        815     0.06265
  562        802     0.06063
  563        807     0.06784
  564        765     0.05967
  565        742     0.06139
  566        797     0.07883
  567        796     0.06401
  568        777     0.07251
  569        689     0.06257
  570        630     0.07438
  571        607     0.06474
  572        595     0.06200
  573        584     0.06264
  574        548     0.05486
  575        481     0.04745
  576        489     0.04515
  577        479     0.04697
  578        466     0.05640
  579        456     0.05212
  580        456     0.04825
  581        447     0.05160
  582        401     0.05091
  583        410     0.04701
  584        394     0.03821
  585        388     0.04250
  586        327     0.05691
  587        380     0.04033
  588        320     0.03899
  589        328     0.03767
  590        307     0.03713
  591        313     0.04146
  592        298     0.04071
  593        353     0.05351
  594        302     0.04137
  595        283     0.03816
  596        271     0.03639
  597        265     0.04290
  598        291     0.04047
  599        282     0.04081
  600        266     0.03198
  601        254     0.03836
  602        255     0.03372
  603        245     0.03161
  604        222     0.02958
  605        229     0.03506
  606        237     0.03459
  607        231     0.03630
  608        227     0.03927
  609        222     0.03282
  610        205     0.02606
  611        174     0.03183
  612        207     0.02612
  613        196     0.03515
  614        208     0.03838
  615        196     0.03793
  616        194     0.03473
  617        185     0.03765
  618        174     0.02941
  619        167     0.03311
  620        174     0.03136
  621        177     0.02854
  622        160     0.02682
  623        183     0.03264
  624        161     0.03374
  625        137     0.01950
  626        141     0.02602
  627        152     0.03042
  628        155     0.02002
  629        146     0.02807
  630        134     0.02110
  631        144     0.02342
  632        148     0.02112
  633        131     0.02152
  634        134     0.02316
  635        131     0.02068
  636        140     0.02221
  637        131     0.02411
  638        124     0.02360
  639        124     0.03458
  640        104     0.02806
  641        131     0.03194
  642        113     0.01902
  643        108     0.02423
  644        132     0.02484
  645        118     0.02254
  646        115     0.02164
  647        123     0.02829
  648        108     0.03062
  649        122     0.02065
  650        108     0.02191
  651         99     0.01642
  652        106     0.02191
  653         95     0.02663
  654         83     0.01687
  655         90     0.01549
  656         94     0.02509
  657         98     0.02392
  658         77     0.01496
  659        101     0.01639
  660         91     0.02723
  661         73     0.02403
  662        107     0.01906
  663         74     0.01743
  664         96     0.02453
  665         78     0.02489
  666         88     0.02328
  667         84     0.02210
  668         91     0.02613
  669         86     0.01656
  670         70     0.02358
  671         89     0.02870
  672         89     0.01986
  673         80     0.02444
  674         92     0.02993
  675         75     0.01891
  676         57     0.02732
  677         86     0.01985
  678         58     0.01707
  679         71     0.02011
  680         72     0.02092
  681         76     0.02155
  682         81     0.02448
  683         69     0.01933
  684         73     0.02257
  685         65     0.02482
  686         56     0.01981
  687         56     0.01784
  688         68     0.02718
  689         64     0.02076
  690         71     0.01927
  691         59     0.02535
  692         50     0.01913
  693         45     0.01714
  694         53     0.01541
  695         54     0.02136
  696         68     0.02059
  697         69     0.02288
  698         65     0.02036
  699         53     0.02591
  700         51     0.02141
  701         51     0.01635
  702         60     0.01618
  703         54     0.01944
  704         48     0.02426
  705         45     0.02090
  706         44     0.01771
  707         48     0.01705
  708         54     0.01837
  709         42     0.01951
  710         67     0.02400
  711         56     0.02520
  712         31     0.01759
  713         41     0.01954
  714         41     0.01816
  715         42     0.01858
  716         59     0.02533
  717         42     0.01914
  718         42     0.02316
  719         30     0.01683
  720         52     0.01677
  721         45     0.01539
  722         28     0.01158
  723         52     0.01760
  724         39     0.01724
  725         51     0.01756
  726         53     0.02180
  727         33     0.01675
  728         33     0.01467
  729         32     0.01255
  730         42     0.01169
  731         41     0.01730
  732         48     0.02129
  733         48     0.02346
  734         37     0.01654
  735         33     0.01152
  736         51     0.02418
  737         31     0.01405
  738         27     0.02057
  739         53     0.02127
  740         38     0.01735
  741         37     0.01936
  742         43     0.02564
  743         32     0.02181
  744         28     0.01115
  745         31     0.01654
  746         26     0.02004
  747         33     0.01718
  748         27     0.01702
  749         38     0.01941
  750         30     0.01366
  751         23     0.01717
  752         25     0.01372
  753         19     0.00924
  754         27     0.01012
  755         37     0.01966
  756         23     0.00951
  757         28     0.02014
  758         32     0.01073
  759         29     0.01628
  760         20     0.01166
  761         31     0.01070
  762         19     0.01529
  763         29     0.01257
  764         23     0.01434
  765         29     0.01780
  766         17     0.01499
  767         23     0.01303
  768         23     0.01321
  769         15     0.01159
  770         32     0.01870
  771         19     0.00945
  772         27     0.01404
  773         27     0.01312
  774         22     0.01559
  775         24     0.01432
  776         32     0.01917
  777         26     0.01535
  778         28     0.01483
  779         33     0.01772
  780         27     0.01987
  781         25     0.01213
  782         26     0.01310
  783         19     0.01273
  784         25     0.01363
  785         24     0.01468
  786         13     0.00936
  787         24     0.01080
  788         15     0.01017
  789         24     0.02201
  790         22     0.01195
  791         20     0.00925
  792         25     0.01477
  793         16     0.01181
  794         15     0.01314
  795         14     0.01483
  796         16     0.01167
  797         13     0.00853
  798         18     0.01379
  799         16     0.01370
  800         19     0.01033
  801         13     0.01216
  802          9     0.00782
  803         10     0.01030
  804         17     0.01104
  805         21     0.00937
  806         13     0.01061
  807         13     0.00936
  808          5     0.01143
  809         11     0.00794
  810         11     0.01191
  811         13     0.01314
  812         20     0.01196
  813         15     0.00958
  814         20     0.01224
  815         18     0.00899
  816         12     0.01248
  817         11     0.00810
  818         15     0.01206
  819         12     0.01152
  820         14     0.00856
  821         12     0.00800
  822          7     0.00999
  823         15     0.01208
  824         13     0.00813
  825          9     0.00771
  826         10     0.00812
  827         10     0.00804
  828          8     0.00749
  829         11     0.00786
  830         17     0.01209
  831         13     0.00827
  832          7     0.00720
  833         13     0.01196
  834         12     0.01305
  835          7     0.00715
  836         10     0.00800
  837          9     0.01175
  838         17     0.01297
  839          8     0.01250
  840          9     0.00754
  841          3     0.00613
  842          9     0.00750
  843          5     0.00651
  844          5     0.00652
  845         15     0.00885
  846          4     0.00653
  847          8     0.00746
  848          7     0.00708
  849          9     0.00784
  850         12     0.01232
  851          8     0.00833
  852          7     0.00758
  853          9     0.01056
  854          2     0.00566
  855          7     0.00678
  856          5     0.00768
  857         16     0.01271
  858          6     0.00985
  859         10     0.01047
  860          6     0.01005
  861          6     0.01218
  862          7     0.00720
  863          6     0.00667
  864          4     0.00669
  865          4     0.00806
  866          9     0.01213
  867          5     0.01128
  868          5     0.00649
  869          9     0.00754
  870          7     0.00714
  871          4     0.00620
  872          6     0.00629
  873          6     0.01331
  874          5     0.00656
  875          2     0.00609
  876          6     0.01031
  877          5     0.00631
  878         10     0.00804
  879          6     0.00691
  880          5     0.00666
  881          2     0.00595
  882          5     0.00937
  883          3     0.00580
  884          6     0.01063
  885          4     0.00656
  886          4     0.00609
  887          4     0.00645
  888          7     0.01372
  889          7     0.00707
  890          8     0.00714
  891          2     0.00716
  892          5     0.00627
  893          1     0.00569
  894          4     0.00684
  895          5     0.01013
  896          4     0.01018
  897          7     0.00732
  898          4     0.00614
  899          7     0.00680
  900          3     0.00579
  901          2     0.00547
  902          6     0.01505
  903          4     0.00675
  904          2     0.00617
  905          1     0.00549
  906          3     0.00580
  908          5     0.00689
  909          3     0.00577
  910          5     0.00909
  911          3     0.00594
  912          6     0.00701
  914          5     0.00694
  915          6     0.00702
  916          6     0.00804
  917          4     0.00626
  918          2     0.00527
  919          6     0.01184
  920          2     0.00550
  921          6     0.01103
  922          2     0.00572
  923          2     0.00608
  924          8     0.01094
  925          2     0.00555
  926          3     0.00531
  927          5     0.00627
  928          3     0.00601
  929          5     0.00804
  930          2     0.00582
  931          3     0.00557
  933          2     0.00582
  935          2     0.00563
  937          1     0.00547
  938          2     0.00576
  940          2     0.00585
  941          3     0.00657
  942          6     0.03757
  943          2     0.00606
  944          3     0.00610
  945          2     0.00619
  946          3     0.00590
  947          6     0.01403
  948          2     0.00627
  950          2     0.00746
  951          1     0.00592
  953          1     0.00594
  954          1     0.00573
  955          2     0.00607
  956          2     0.00607
  957          2     0.00609
  959          2     0.00579
  960          1     0.00581
  962          1     0.00630
  963          6     0.01210
  964          1     0.00605
  965          1     0.00573
  966          2     0.00623
  967          1     0.00560
  968          2     0.00628
  970          3     0.00618
  971          3     0.00652
  972          2     0.01314
  973          3     0.01091
  974          1     0.00608
  975          1     0.01125
  976          1     0.00617
  979          4     0.01096
  980          2     0.00594
  982          5     0.00634
  984          1     0.00535
  985          3     0.00990
  986          4     0.00647
  987          2     0.00595
  988          1     0.00549
  989          2     0.00569
  991          4     0.00611
  993          4     0.00668
  994          2     0.01034
  995          4     0.00989
  998          2     0.01594
  999          3     0.00600
 1000          3     0.00586
 1001          2     0.00597
 1002          2     0.00541
 1003          2     0.00567
 1004          1     0.00571
 1007          1     0.00604
 1009          2     0.00570
 1010          3     0.00598
 1011          4     0.00622
 1012          1     0.00534
 1013          1     0.00884
 1015          2     0.01227
 1016          1     0.00578
 1017          1     0.00561
 1019          1     0.00521
 1020          3     0.00610
 1022          2     0.00563
 1023          3     0.00613
 1026          1     0.00588
 1027          2     0.00588
 1028          2     0.00605
 1030          1     0.00576
 1031          2     0.00713
 1032          4     0.00602
 1034          2     0.00602
 1035          1     0.00614
 1036          1     0.00558
 1038          1     0.00560
 1040          2     0.00580
 1042          2     0.00577
 1044          1     0.00579
 1045          1     0.00555
 1046          1     0.00579
 1047          1     0.00652
 1048          1     0.00519
 1051          1     0.00551
 1054          3     0.00974
 1055          1     0.00540
 1056          1     0.00722
 1057          1     0.00579
 1059          1     0.00570
 1061          1     0.00578
 1064          2     0.01037
 1066          1     0.00587
 1074          1     0.00606
 1076          1     0.00620
 1078          2     0.00566
 1079          1     0.00573
 1081          1     0.00588
 1087          1     0.00565
 1088          2     0.00573
 1089          1     0.00588
 1090          2     0.01029
 1101          1     0.00587
 1103          1     0.00571
 1104          1     0.00563
 1106          1     0.00591
 1114          1     0.00989
 1115          1     0.01116
 1116          1     0.00600
 1125          1     0.00931
 1127          1     0.00579
 1132          1     0.00569
 1133          1     0.00659
 1139          1     0.00594
 1146          1     0.00913
 1149          1     0.00604
 1154          1     0.00571
 1160          1     0.00561
 1163          2     0.00617
 1164          1     0.00610
 1173          1     0.00616
 1178          1     0.00613
 1185          1     0.00595
 1188          2     0.00610
 1196          1     0.00532
 1197          1     0.00525
 1199          1     0.00600
 1207          1     0.00553
 1210          1     0.00616
 1214          1     0.00561
 1221          1     0.00583
 1227          1     0.00638
 1231          1     0.00599
 1242          1     0.00553
 1246          1     0.00574
 1249          1     0.00548
 1256          1     0.00614
 1274          1     0.00568
 1322          1     0.00497
took 781 iterations
Trial Time:          0.12197
Average Time:        0.12288
Exiting @ tick 4494770589000 because exiting with last active thread context
