
---------- Begin Simulation Statistics ----------
final_tick                               1243150702500                       # Number of ticks from beginning of simulation (restored from checkpoints and never reset)
host_inst_rate                                  60941                       # Simulator instruction rate (inst/s)
host_mem_usage                                 702424                       # Number of bytes of host memory used
host_op_rate                                    61119                       # Simulator op (including micro ops) rate (op/s)
host_seconds                                 23575.16                       # Real time elapsed on the host
host_tick_rate                               52731388                       # Simulator tick rate (ticks/s)
sim_freq                                 1000000000000                       # Frequency of simulated ticks
sim_insts                                  1436688697                       # Number of instructions simulated
sim_ops                                    1440892437                       # Number of ops (including micro ops) simulated
sim_seconds                                  1.243151                       # Number of seconds simulated
sim_ticks                                1243150702500                       # Number of ticks simulated
system.cpu0.branchPred.BTBCorrect                   0                       # Number of correct BTB predictions (this stat may not work properly.
system.cpu0.branchPred.BTBHitPct            86.732687                       # BTB Hit Percentage
system.cpu0.branchPred.BTBHits              177697771                       # Number of BTB hits
system.cpu0.branchPred.BTBLookups           204879817                       # Number of BTB lookups
system.cpu0.branchPred.RASInCorrect                 0                       # Number of incorrect RAS predictions.
system.cpu0.branchPred.condIncorrect         13301297                       # Number of conditional branches incorrect
system.cpu0.branchPred.condPredicted        274661237                       # Number of conditional branches predicted
system.cpu0.branchPred.indirectHits          21147593                       # Number of indirect target hits.
system.cpu0.branchPred.indirectLookups       22563366                       # Number of indirect predictor lookups.
system.cpu0.branchPred.indirectMisses         1415773                       # Number of indirect misses.
system.cpu0.branchPred.lookups              346839579                       # Number of BP lookups
system.cpu0.branchPred.usedRAS                      0                       # Number of times the RAS was used to get a target.
system.cpu0.branchPredindirectMispredicted      2187394                       # Number of mispredicted indirect branches.
system.cpu0.commit.amos                       2100246                       # Number of atomic instructions committed
system.cpu0.commit.branchMispredicts          8692247                       # The number of times a branch was mispredicted
system.cpu0.commit.branches                 329551003                       # Number of branches committed
system.cpu0.commit.bw_lim_events             33287242                       # number cycles where commit BW limit reached
system.cpu0.commit.commitNonSpecStalls        6309689                       # The number of times commit has been forced to stall to communicate backwards
system.cpu0.commit.commitSquashedInsts       43245938                       # The number of squashed insts skipped by commit
system.cpu0.commit.committedInsts          1316581916                       # Number of instructions committed
system.cpu0.commit.committedOps            1318685482                       # Number of ops (including micro ops) committed
system.cpu0.commit.committed_per_cycle::samples   2269469475                       # Number of insts commited each cycle
system.cpu0.commit.committed_per_cycle::mean     0.581055                       # Number of insts commited each cycle
system.cpu0.commit.committed_per_cycle::stdev     1.297067                       # Number of insts commited each cycle
system.cpu0.commit.committed_per_cycle::underflows            0      0.00%      0.00% # Number of insts commited each cycle
system.cpu0.commit.committed_per_cycle::0   1597008151     70.37%     70.37% # Number of insts commited each cycle
system.cpu0.commit.committed_per_cycle::1    412140379     18.16%     88.53% # Number of insts commited each cycle
system.cpu0.commit.committed_per_cycle::2    104076600      4.59%     93.12% # Number of insts commited each cycle
system.cpu0.commit.committed_per_cycle::3     84147236      3.71%     96.82% # Number of insts commited each cycle
system.cpu0.commit.committed_per_cycle::4     25682171      1.13%     97.95% # Number of insts commited each cycle
system.cpu0.commit.committed_per_cycle::5      4314815      0.19%     98.14% # Number of insts commited each cycle
system.cpu0.commit.committed_per_cycle::6      6340667      0.28%     98.42% # Number of insts commited each cycle
system.cpu0.commit.committed_per_cycle::7      2472214      0.11%     98.53% # Number of insts commited each cycle
system.cpu0.commit.committed_per_cycle::8     33287242      1.47%    100.00% # Number of insts commited each cycle
system.cpu0.commit.committed_per_cycle::overflows            0      0.00%    100.00% # Number of insts commited each cycle
system.cpu0.commit.committed_per_cycle::min_value            0                       # Number of insts commited each cycle
system.cpu0.commit.committed_per_cycle::max_value            8                       # Number of insts commited each cycle
system.cpu0.commit.committed_per_cycle::total   2269469475                       # Number of insts commited each cycle
system.cpu0.commit.fp_insts                        50                       # Number of committed floating point instructions.
system.cpu0.commit.function_calls            25144023                       # Number of function calls committed.
system.cpu0.commit.int_insts               1273953240                       # Number of committed integer instructions.
system.cpu0.commit.loads                    405174368                       # Number of loads committed
system.cpu0.commit.membars                    4203720                       # Number of memory barriers committed
system.cpu0.commit.op_class_0::No_OpClass      4203726      0.32%      0.32% # Class of committed instruction
system.cpu0.commit.op_class_0::IntAlu       742085922     56.27%     56.59% # Class of committed instruction
system.cpu0.commit.op_class_0::IntMult       11833026      0.90%     57.49% # Class of committed instruction
system.cpu0.commit.op_class_0::IntDiv         2099837      0.16%     57.65% # Class of committed instruction
system.cpu0.commit.op_class_0::FloatAdd             0      0.00%     57.65% # Class of committed instruction
system.cpu0.commit.op_class_0::FloatCmp             4      0.00%     57.65% # Class of committed instruction
system.cpu0.commit.op_class_0::FloatCvt            12      0.00%     57.65% # Class of committed instruction
system.cpu0.commit.op_class_0::FloatMult            0      0.00%     57.65% # Class of committed instruction
system.cpu0.commit.op_class_0::FloatMultAcc            0      0.00%     57.65% # Class of committed instruction
system.cpu0.commit.op_class_0::FloatDiv             2      0.00%     57.65% # Class of committed instruction
system.cpu0.commit.op_class_0::FloatMisc            4      0.00%     57.65% # Class of committed instruction
system.cpu0.commit.op_class_0::FloatSqrt            0      0.00%     57.65% # Class of committed instruction
system.cpu0.commit.op_class_0::SimdAdd              0      0.00%     57.65% # Class of committed instruction
system.cpu0.commit.op_class_0::SimdAddAcc            0      0.00%     57.65% # Class of committed instruction
system.cpu0.commit.op_class_0::SimdAlu              0      0.00%     57.65% # Class of committed instruction
system.cpu0.commit.op_class_0::SimdCmp              0      0.00%     57.65% # Class of committed instruction
system.cpu0.commit.op_class_0::SimdCvt              0      0.00%     57.65% # Class of committed instruction
system.cpu0.commit.op_class_0::SimdMisc             0      0.00%     57.65% # Class of committed instruction
system.cpu0.commit.op_class_0::SimdMult             0      0.00%     57.65% # Class of committed instruction
system.cpu0.commit.op_class_0::SimdMultAcc            0      0.00%     57.65% # Class of committed instruction
system.cpu0.commit.op_class_0::SimdShift            0      0.00%     57.65% # Class of committed instruction
system.cpu0.commit.op_class_0::SimdShiftAcc            0      0.00%     57.65% # Class of committed instruction
system.cpu0.commit.op_class_0::SimdDiv              0      0.00%     57.65% # Class of committed instruction
system.cpu0.commit.op_class_0::SimdSqrt             0      0.00%     57.65% # Class of committed instruction
system.cpu0.commit.op_class_0::SimdFloatAdd            0      0.00%     57.65% # Class of committed instruction
system.cpu0.commit.op_class_0::SimdFloatAlu            0      0.00%     57.65% # Class of committed instruction
system.cpu0.commit.op_class_0::SimdFloatCmp            0      0.00%     57.65% # Class of committed instruction
system.cpu0.commit.op_class_0::SimdFloatCvt            0      0.00%     57.65% # Class of committed instruction
system.cpu0.commit.op_class_0::SimdFloatDiv            0      0.00%     57.65% # Class of committed instruction
system.cpu0.commit.op_class_0::SimdFloatMisc            0      0.00%     57.65% # Class of committed instruction
system.cpu0.commit.op_class_0::SimdFloatMult            0      0.00%     57.65% # Class of committed instruction
system.cpu0.commit.op_class_0::SimdFloatMultAcc            0      0.00%     57.65% # Class of committed instruction
system.cpu0.commit.op_class_0::SimdFloatSqrt            0      0.00%     57.65% # Class of committed instruction
system.cpu0.commit.op_class_0::SimdReduceAdd            0      0.00%     57.65% # Class of committed instruction
system.cpu0.commit.op_class_0::SimdReduceAlu            0      0.00%     57.65% # Class of committed instruction
system.cpu0.commit.op_class_0::SimdReduceCmp            0      0.00%     57.65% # Class of committed instruction
system.cpu0.commit.op_class_0::SimdFloatReduceAdd            0      0.00%     57.65% # Class of committed instruction
system.cpu0.commit.op_class_0::SimdFloatReduceCmp            0      0.00%     57.65% # Class of committed instruction
system.cpu0.commit.op_class_0::SimdAes              0      0.00%     57.65% # Class of committed instruction
system.cpu0.commit.op_class_0::SimdAesMix            0      0.00%     57.65% # Class of committed instruction
system.cpu0.commit.op_class_0::SimdSha1Hash            0      0.00%     57.65% # Class of committed instruction
system.cpu0.commit.op_class_0::SimdSha1Hash2            0      0.00%     57.65% # Class of committed instruction
system.cpu0.commit.op_class_0::SimdSha256Hash            0      0.00%     57.65% # Class of committed instruction
system.cpu0.commit.op_class_0::SimdSha256Hash2            0      0.00%     57.65% # Class of committed instruction
system.cpu0.commit.op_class_0::SimdShaSigma2            0      0.00%     57.65% # Class of committed instruction
system.cpu0.commit.op_class_0::SimdShaSigma3            0      0.00%     57.65% # Class of committed instruction
system.cpu0.commit.op_class_0::SimdPredAlu            0      0.00%     57.65% # Class of committed instruction
system.cpu0.commit.op_class_0::MemRead      407274606     30.88%     88.53% # Class of committed instruction
system.cpu0.commit.op_class_0::MemWrite     151188315     11.47%    100.00% # Class of committed instruction
system.cpu0.commit.op_class_0::FloatMemRead            8      0.00%    100.00% # Class of committed instruction
system.cpu0.commit.op_class_0::FloatMemWrite           20      0.00%    100.00% # Class of committed instruction
system.cpu0.commit.op_class_0::IprAccess            0      0.00%    100.00% # Class of committed instruction
system.cpu0.commit.op_class_0::InstPrefetch            0      0.00%    100.00% # Class of committed instruction
system.cpu0.commit.op_class_0::total       1318685482                       # Class of committed instruction
system.cpu0.commit.refs                     558462949                       # Number of memory references committed
system.cpu0.commit.swp_count                        0                       # Number of s/w prefetches committed
system.cpu0.commit.vec_insts                        0                       # Number of committed Vector instructions.
system.cpu0.committedInsts                 1316581916                       # Number of Instructions Simulated
system.cpu0.committedOps                   1318685482                       # Number of Ops (including micro ops) Simulated
system.cpu0.cpi                              1.884811                       # CPI: Cycles Per Instruction
system.cpu0.cpi_total                        1.884811                       # CPI: Total CPI of All Threads
system.cpu0.decode.BlockedCycles            406404586                       # Number of cycles decode is blocked
system.cpu0.decode.BranchMispred              4661600                       # Number of times decode detected a branch misprediction
system.cpu0.decode.BranchResolved           176609322                       # Number of times decode resolved a branch
system.cpu0.decode.DecodedInsts            1391725942                       # Number of instructions handled by decode
system.cpu0.decode.IdleCycles               901347585                       # Number of cycles decode is idle
system.cpu0.decode.RunCycles                958503963                       # Number of cycles decode is running
system.cpu0.decode.SquashCycles               8702292                       # Number of cycles decode is squashing
system.cpu0.decode.SquashedInsts             11940301                       # Number of squashed instructions handled by decode
system.cpu0.decode.UnblockCycles              5705768                       # Number of cycles decode is unblocking
system.cpu0.dtb.accesses                            0                       # DTB accesses
system.cpu0.dtb.hits                                0                       # DTB hits
system.cpu0.dtb.misses                              0                       # DTB misses
system.cpu0.dtb.read_accesses                       0                       # DTB read accesses
system.cpu0.dtb.read_hits                           0                       # DTB read hits
system.cpu0.dtb.read_misses                         0                       # DTB read misses
system.cpu0.dtb.write_accesses                      0                       # DTB write accesses
system.cpu0.dtb.write_hits                          0                       # DTB write hits
system.cpu0.dtb.write_misses                        0                       # DTB write misses
system.cpu0.fetch.Branches                  346839579                       # Number of branches that fetch encountered
system.cpu0.fetch.CacheLines                226961032                       # Number of cache lines fetched
system.cpu0.fetch.Cycles                   1371574799                       # Number of cycles fetch has run and was not squashing or blocked
system.cpu0.fetch.IcacheSquashes              3110832                       # Number of outstanding Icache misses that were squashed
system.cpu0.fetch.IcacheWaitRetryStallCycles          113                       # Number of stall cycles due to full MSHR
system.cpu0.fetch.Insts                    1412483540                       # Number of instructions fetch has processed
system.cpu0.fetch.MiscStallCycles                  14                       # Number of cycles fetch has spent waiting on interrupts, or bad addresses, or out of MSHRs
system.cpu0.fetch.PendingTrapStallCycles            6                       # Number of stall cycles due to pending traps
system.cpu0.fetch.SquashCycles               26622686                       # Number of cycles fetch has spent squashing
system.cpu0.fetch.branchRate                 0.139770                       # Number of branch fetches per cycle
system.cpu0.fetch.icacheStallCycles         895777919                       # Number of cycles fetch is stalled on an Icache miss
system.cpu0.fetch.predictedBranches         198845364                       # Number of branches that fetch has predicted taken
system.cpu0.fetch.rate                       0.569204                       # Number of inst fetches per cycle
system.cpu0.fetch.rateDist::samples        2280664194                       # Number of instructions fetched each cycle (Total)
system.cpu0.fetch.rateDist::mean             0.620252                       # Number of instructions fetched each cycle (Total)
system.cpu0.fetch.rateDist::stdev            0.899428                       # Number of instructions fetched each cycle (Total)
system.cpu0.fetch.rateDist::underflows              0      0.00%      0.00% # Number of instructions fetched each cycle (Total)
system.cpu0.fetch.rateDist::0              1281961146     56.21%     56.21% # Number of instructions fetched each cycle (Total)
system.cpu0.fetch.rateDist::1               739584952     32.43%     88.64% # Number of instructions fetched each cycle (Total)
system.cpu0.fetch.rateDist::2               144943287      6.36%     94.99% # Number of instructions fetched each cycle (Total)
system.cpu0.fetch.rateDist::3                91223691      4.00%     98.99% # Number of instructions fetched each cycle (Total)
system.cpu0.fetch.rateDist::4                13914530      0.61%     99.60% # Number of instructions fetched each cycle (Total)
system.cpu0.fetch.rateDist::5                 4742830      0.21%     99.81% # Number of instructions fetched each cycle (Total)
system.cpu0.fetch.rateDist::6                   88156      0.00%     99.82% # Number of instructions fetched each cycle (Total)
system.cpu0.fetch.rateDist::7                 2100984      0.09%     99.91% # Number of instructions fetched each cycle (Total)
system.cpu0.fetch.rateDist::8                 2104618      0.09%    100.00% # Number of instructions fetched each cycle (Total)
system.cpu0.fetch.rateDist::overflows               0      0.00%    100.00% # Number of instructions fetched each cycle (Total)
system.cpu0.fetch.rateDist::min_value               0                       # Number of instructions fetched each cycle (Total)
system.cpu0.fetch.rateDist::max_value               8                       # Number of instructions fetched each cycle (Total)
system.cpu0.fetch.rateDist::total          2280664194                       # Number of instructions fetched each cycle (Total)
system.cpu0.fp_regfile_reads                       45                       # number of floating regfile reads
system.cpu0.fp_regfile_writes                      23                       # number of floating regfile writes
system.cpu0.idleCycles                      200843535                       # Total number of cycles that the CPU has spent unscheduled due to idling
system.cpu0.iew.branchMispredicts             8778629                       # Number of branch mispredicts detected at execute
system.cpu0.iew.exec_branches               335175431                       # Number of branches executed
system.cpu0.iew.exec_nop                            0                       # number of nop insts executed
system.cpu0.iew.exec_rate                    0.544532                       # Inst execution rate
system.cpu0.iew.exec_refs                   577330169                       # number of memory reference insts executed
system.cpu0.iew.exec_stores                 155290870                       # Number of stores executed
system.cpu0.iew.exec_swp                            0                       # number of swp insts executed
system.cpu0.iew.iewBlockCycles              340569199                       # Number of cycles IEW is blocking
system.cpu0.iew.iewDispLoadInsts            422762562                       # Number of dispatched load instructions
system.cpu0.iew.iewDispNonSpecInsts           2106420                       # Number of dispatched non-speculative instructions
system.cpu0.iew.iewDispSquashedInsts          8112538                       # Number of squashed instructions skipped by dispatch
system.cpu0.iew.iewDispStoreInsts           155705808                       # Number of dispatched store instructions
system.cpu0.iew.iewDispatchedInsts         1361882860                       # Number of instructions dispatched to IQ
system.cpu0.iew.iewExecLoadInsts            422039299                       # Number of load instructions executed
system.cpu0.iew.iewExecSquashedInsts          5588497                       # Number of squashed instructions skipped in execute
system.cpu0.iew.iewExecutedInsts           1351259782                       # Number of executed instructions
system.cpu0.iew.iewIQFullEvents               1999044                       # Number of times the IQ has become full, causing a stall
system.cpu0.iew.iewIdleCycles                       0                       # Number of cycles IEW is idle
system.cpu0.iew.iewLSQFullEvents              5771202                       # Number of times the LSQ has become full, causing a stall
system.cpu0.iew.iewSquashCycles               8702292                       # Number of cycles IEW is squashing
system.cpu0.iew.iewUnblockCycles             10202227                       # Number of cycles IEW is unblocking
system.cpu0.iew.lsq.thread0.blockedLoads            0                       # Number of blocked loads due to partial load-store forwarding
system.cpu0.iew.lsq.thread0.cacheBlocked       204275                       # Number of times an access to memory failed due to the cache being blocked
system.cpu0.iew.lsq.thread0.forwLoads        24719018                       # Number of loads that had data forwarded from stores
system.cpu0.iew.lsq.thread0.ignoredResponses        16934                       # Number of memory responses ignored because the instruction is squashed
system.cpu0.iew.lsq.thread0.invAddrLoads            0                       # Number of loads ignored due to an invalid address
system.cpu0.iew.lsq.thread0.invAddrSwpfs            0                       # Number of software prefetches ignored due to an invalid address
system.cpu0.iew.lsq.thread0.memOrderViolation         9189                       # Number of memory ordering violations
system.cpu0.iew.lsq.thread0.rescheduledLoads      4533662                       # Number of loads that were rescheduled
system.cpu0.iew.lsq.thread0.squashedLoads     17588194                       # Number of loads squashed
system.cpu0.iew.lsq.thread0.squashedStores      2417216                       # Number of stores squashed
system.cpu0.iew.memOrderViolationEvents          9189                       # Number of memory order violations
system.cpu0.iew.predictedNotTakenIncorrect       733093                       # Number of branches that were predicted not taken incorrectly
system.cpu0.iew.predictedTakenIncorrect       8045536                       # Number of branches that were predicted taken incorrectly
system.cpu0.iew.wb_consumers                612369756                       # num instructions consuming a value
system.cpu0.iew.wb_count                   1342083891                       # cumulative count of insts written-back
system.cpu0.iew.wb_fanout                    0.834192                       # average fanout of values written-back
system.cpu0.iew.wb_producers                510833888                       # num instructions producing a value
system.cpu0.iew.wb_rate                      0.540834                       # insts written-back per cycle
system.cpu0.iew.wb_sent                    1342158378                       # cumulative count of insts sent to commit
system.cpu0.int_regfile_reads              1661239629                       # number of integer regfile reads
system.cpu0.int_regfile_writes              861352417                       # number of integer regfile writes
system.cpu0.ipc                              0.530557                       # IPC: Instructions Per Cycle
system.cpu0.ipc_total                        0.530557                       # IPC: Total IPC of All Threads
system.cpu0.iq.FU_type_0::No_OpClass          4205628      0.31%      0.31% # Type of FU issued
system.cpu0.iq.FU_type_0::IntAlu            758445114     55.90%     56.21% # Type of FU issued
system.cpu0.iq.FU_type_0::IntMult            11848271      0.87%     57.08% # Type of FU issued
system.cpu0.iq.FU_type_0::IntDiv              2100410      0.15%     57.24% # Type of FU issued
system.cpu0.iq.FU_type_0::FloatAdd                  0      0.00%     57.24% # Type of FU issued
system.cpu0.iq.FU_type_0::FloatCmp                  4      0.00%     57.24% # Type of FU issued
system.cpu0.iq.FU_type_0::FloatCvt                 12      0.00%     57.24% # Type of FU issued
system.cpu0.iq.FU_type_0::FloatMult                 0      0.00%     57.24% # Type of FU issued
system.cpu0.iq.FU_type_0::FloatMultAcc              0      0.00%     57.24% # Type of FU issued
system.cpu0.iq.FU_type_0::FloatDiv                  2      0.00%     57.24% # Type of FU issued
system.cpu0.iq.FU_type_0::FloatMisc                 4      0.00%     57.24% # Type of FU issued
system.cpu0.iq.FU_type_0::FloatSqrt                 0      0.00%     57.24% # Type of FU issued
system.cpu0.iq.FU_type_0::SimdAdd                   0      0.00%     57.24% # Type of FU issued
system.cpu0.iq.FU_type_0::SimdAddAcc                0      0.00%     57.24% # Type of FU issued
system.cpu0.iq.FU_type_0::SimdAlu                   0      0.00%     57.24% # Type of FU issued
system.cpu0.iq.FU_type_0::SimdCmp                   0      0.00%     57.24% # Type of FU issued
system.cpu0.iq.FU_type_0::SimdCvt                   0      0.00%     57.24% # Type of FU issued
system.cpu0.iq.FU_type_0::SimdMisc                  0      0.00%     57.24% # Type of FU issued
system.cpu0.iq.FU_type_0::SimdMult                  0      0.00%     57.24% # Type of FU issued
system.cpu0.iq.FU_type_0::SimdMultAcc               0      0.00%     57.24% # Type of FU issued
system.cpu0.iq.FU_type_0::SimdShift                 0      0.00%     57.24% # Type of FU issued
system.cpu0.iq.FU_type_0::SimdShiftAcc              0      0.00%     57.24% # Type of FU issued
system.cpu0.iq.FU_type_0::SimdDiv                   0      0.00%     57.24% # Type of FU issued
system.cpu0.iq.FU_type_0::SimdSqrt                  0      0.00%     57.24% # Type of FU issued
system.cpu0.iq.FU_type_0::SimdFloatAdd              0      0.00%     57.24% # Type of FU issued
system.cpu0.iq.FU_type_0::SimdFloatAlu              0      0.00%     57.24% # Type of FU issued
system.cpu0.iq.FU_type_0::SimdFloatCmp              0      0.00%     57.24% # Type of FU issued
system.cpu0.iq.FU_type_0::SimdFloatCvt              0      0.00%     57.24% # Type of FU issued
system.cpu0.iq.FU_type_0::SimdFloatDiv              0      0.00%     57.24% # Type of FU issued
system.cpu0.iq.FU_type_0::SimdFloatMisc             0      0.00%     57.24% # Type of FU issued
system.cpu0.iq.FU_type_0::SimdFloatMult             0      0.00%     57.24% # Type of FU issued
system.cpu0.iq.FU_type_0::SimdFloatMultAcc            0      0.00%     57.24% # Type of FU issued
system.cpu0.iq.FU_type_0::SimdFloatSqrt             0      0.00%     57.24% # Type of FU issued
system.cpu0.iq.FU_type_0::SimdReduceAdd             0      0.00%     57.24% # Type of FU issued
system.cpu0.iq.FU_type_0::SimdReduceAlu             0      0.00%     57.24% # Type of FU issued
system.cpu0.iq.FU_type_0::SimdReduceCmp             0      0.00%     57.24% # Type of FU issued
system.cpu0.iq.FU_type_0::SimdFloatReduceAdd            0      0.00%     57.24% # Type of FU issued
system.cpu0.iq.FU_type_0::SimdFloatReduceCmp            0      0.00%     57.24% # Type of FU issued
system.cpu0.iq.FU_type_0::SimdAes                   0      0.00%     57.24% # Type of FU issued
system.cpu0.iq.FU_type_0::SimdAesMix                0      0.00%     57.24% # Type of FU issued
system.cpu0.iq.FU_type_0::SimdSha1Hash              0      0.00%     57.24% # Type of FU issued
system.cpu0.iq.FU_type_0::SimdSha1Hash2             0      0.00%     57.24% # Type of FU issued
system.cpu0.iq.FU_type_0::SimdSha256Hash            0      0.00%     57.24% # Type of FU issued
system.cpu0.iq.FU_type_0::SimdSha256Hash2            0      0.00%     57.24% # Type of FU issued
system.cpu0.iq.FU_type_0::SimdShaSigma2             0      0.00%     57.24% # Type of FU issued
system.cpu0.iq.FU_type_0::SimdShaSigma3             0      0.00%     57.24% # Type of FU issued
system.cpu0.iq.FU_type_0::SimdPredAlu               0      0.00%     57.24% # Type of FU issued
system.cpu0.iq.FU_type_0::MemRead           426955204     31.47%     88.70% # Type of FU issued
system.cpu0.iq.FU_type_0::MemWrite          153293601     11.30%    100.00% # Type of FU issued
system.cpu0.iq.FU_type_0::FloatMemRead              9      0.00%    100.00% # Type of FU issued
system.cpu0.iq.FU_type_0::FloatMemWrite            21      0.00%    100.00% # Type of FU issued
system.cpu0.iq.FU_type_0::IprAccess                 0      0.00%    100.00% # Type of FU issued
system.cpu0.iq.FU_type_0::InstPrefetch              0      0.00%    100.00% # Type of FU issued
system.cpu0.iq.FU_type_0::total            1356848280                       # Type of FU issued
system.cpu0.iq.fp_alu_accesses                     54                       # Number of floating point alu accesses
system.cpu0.iq.fp_inst_queue_reads                106                       # Number of floating instruction queue reads
system.cpu0.iq.fp_inst_queue_wakeup_accesses           51                       # Number of floating instruction queue wakeup accesses
system.cpu0.iq.fp_inst_queue_writes                54                       # Number of floating instruction queue writes
system.cpu0.iq.fu_busy_cnt                    2718862                       # FU busy when requested
system.cpu0.iq.fu_busy_rate                  0.002004                       # FU busy rate (busy events/executed inst)
system.cpu0.iq.fu_full::No_OpClass                  0      0.00%      0.00% # attempts to use FU when none available
system.cpu0.iq.fu_full::IntAlu                 416092     15.30%     15.30% # attempts to use FU when none available
system.cpu0.iq.fu_full::IntMult                     0      0.00%     15.30% # attempts to use FU when none available
system.cpu0.iq.fu_full::IntDiv                      0      0.00%     15.30% # attempts to use FU when none available
system.cpu0.iq.fu_full::FloatAdd                    0      0.00%     15.30% # attempts to use FU when none available
system.cpu0.iq.fu_full::FloatCmp                    0      0.00%     15.30% # attempts to use FU when none available
system.cpu0.iq.fu_full::FloatCvt                    0      0.00%     15.30% # attempts to use FU when none available
system.cpu0.iq.fu_full::FloatMult                   0      0.00%     15.30% # attempts to use FU when none available
system.cpu0.iq.fu_full::FloatMultAcc                0      0.00%     15.30% # attempts to use FU when none available
system.cpu0.iq.fu_full::FloatDiv                    0      0.00%     15.30% # attempts to use FU when none available
system.cpu0.iq.fu_full::FloatMisc                   0      0.00%     15.30% # attempts to use FU when none available
system.cpu0.iq.fu_full::FloatSqrt                   0      0.00%     15.30% # attempts to use FU when none available
system.cpu0.iq.fu_full::SimdAdd                     0      0.00%     15.30% # attempts to use FU when none available
system.cpu0.iq.fu_full::SimdAddAcc                  0      0.00%     15.30% # attempts to use FU when none available
system.cpu0.iq.fu_full::SimdAlu                     0      0.00%     15.30% # attempts to use FU when none available
system.cpu0.iq.fu_full::SimdCmp                     0      0.00%     15.30% # attempts to use FU when none available
system.cpu0.iq.fu_full::SimdCvt                     0      0.00%     15.30% # attempts to use FU when none available
system.cpu0.iq.fu_full::SimdMisc                    0      0.00%     15.30% # attempts to use FU when none available
system.cpu0.iq.fu_full::SimdMult                    0      0.00%     15.30% # attempts to use FU when none available
system.cpu0.iq.fu_full::SimdMultAcc                 0      0.00%     15.30% # attempts to use FU when none available
system.cpu0.iq.fu_full::SimdShift                   0      0.00%     15.30% # attempts to use FU when none available
system.cpu0.iq.fu_full::SimdShiftAcc                0      0.00%     15.30% # attempts to use FU when none available
system.cpu0.iq.fu_full::SimdDiv                     0      0.00%     15.30% # attempts to use FU when none available
system.cpu0.iq.fu_full::SimdSqrt                    0      0.00%     15.30% # attempts to use FU when none available
system.cpu0.iq.fu_full::SimdFloatAdd                0      0.00%     15.30% # attempts to use FU when none available
system.cpu0.iq.fu_full::SimdFloatAlu                0      0.00%     15.30% # attempts to use FU when none available
system.cpu0.iq.fu_full::SimdFloatCmp                0      0.00%     15.30% # attempts to use FU when none available
system.cpu0.iq.fu_full::SimdFloatCvt                0      0.00%     15.30% # attempts to use FU when none available
system.cpu0.iq.fu_full::SimdFloatDiv                0      0.00%     15.30% # attempts to use FU when none available
system.cpu0.iq.fu_full::SimdFloatMisc               0      0.00%     15.30% # attempts to use FU when none available
system.cpu0.iq.fu_full::SimdFloatMult               0      0.00%     15.30% # attempts to use FU when none available
system.cpu0.iq.fu_full::SimdFloatMultAcc            0      0.00%     15.30% # attempts to use FU when none available
system.cpu0.iq.fu_full::SimdFloatSqrt               0      0.00%     15.30% # attempts to use FU when none available
system.cpu0.iq.fu_full::SimdReduceAdd               0      0.00%     15.30% # attempts to use FU when none available
system.cpu0.iq.fu_full::SimdReduceAlu               0      0.00%     15.30% # attempts to use FU when none available
system.cpu0.iq.fu_full::SimdReduceCmp               0      0.00%     15.30% # attempts to use FU when none available
system.cpu0.iq.fu_full::SimdFloatReduceAdd            0      0.00%     15.30% # attempts to use FU when none available
system.cpu0.iq.fu_full::SimdFloatReduceCmp            0      0.00%     15.30% # attempts to use FU when none available
system.cpu0.iq.fu_full::SimdAes                     0      0.00%     15.30% # attempts to use FU when none available
system.cpu0.iq.fu_full::SimdAesMix                  0      0.00%     15.30% # attempts to use FU when none available
system.cpu0.iq.fu_full::SimdSha1Hash                0      0.00%     15.30% # attempts to use FU when none available
system.cpu0.iq.fu_full::SimdSha1Hash2               0      0.00%     15.30% # attempts to use FU when none available
system.cpu0.iq.fu_full::SimdSha256Hash              0      0.00%     15.30% # attempts to use FU when none available
system.cpu0.iq.fu_full::SimdSha256Hash2             0      0.00%     15.30% # attempts to use FU when none available
system.cpu0.iq.fu_full::SimdShaSigma2               0      0.00%     15.30% # attempts to use FU when none available
system.cpu0.iq.fu_full::SimdShaSigma3               0      0.00%     15.30% # attempts to use FU when none available
system.cpu0.iq.fu_full::SimdPredAlu                 0      0.00%     15.30% # attempts to use FU when none available
system.cpu0.iq.fu_full::MemRead               1875978     69.00%     84.30% # attempts to use FU when none available
system.cpu0.iq.fu_full::MemWrite               426790     15.70%    100.00% # attempts to use FU when none available
system.cpu0.iq.fu_full::FloatMemRead                0      0.00%    100.00% # attempts to use FU when none available
system.cpu0.iq.fu_full::FloatMemWrite               2      0.00%    100.00% # attempts to use FU when none available
system.cpu0.iq.fu_full::IprAccess                   0      0.00%    100.00% # attempts to use FU when none available
system.cpu0.iq.fu_full::InstPrefetch                0      0.00%    100.00% # attempts to use FU when none available
system.cpu0.iq.int_alu_accesses            1355361460                       # Number of integer alu accesses
system.cpu0.iq.int_inst_queue_reads        4997194701                       # Number of integer instruction queue reads
system.cpu0.iq.int_inst_queue_wakeup_accesses   1342083840                       # Number of integer instruction queue wakeup accesses
system.cpu0.iq.int_inst_queue_writes       1405088542                       # Number of integer instruction queue writes
system.cpu0.iq.iqInstsAdded                1355572534                       # Number of instructions added to the IQ (excludes non-spec)
system.cpu0.iq.iqInstsIssued               1356848280                       # Number of instructions issued
system.cpu0.iq.iqNonSpecInstsAdded            6310326                       # Number of non-speculative instructions added to the IQ
system.cpu0.iq.iqSquashedInstsExamined       43197297                       # Number of squashed instructions iterated over during squash; mainly for profiling
system.cpu0.iq.iqSquashedInstsIssued           115192                       # Number of squashed instructions issued
system.cpu0.iq.iqSquashedNonSpecRemoved           637                       # Number of squashed non-spec instructions that were removed
system.cpu0.iq.iqSquashedOperandsExamined     20994739                       # Number of squashed operands that are examined and possibly removed from graph
system.cpu0.iq.issued_per_cycle::samples   2280664194                       # Number of insts issued each cycle
system.cpu0.iq.issued_per_cycle::mean        0.594936                       # Number of insts issued each cycle
system.cpu0.iq.issued_per_cycle::stdev       0.837985                       # Number of insts issued each cycle
system.cpu0.iq.issued_per_cycle::underflows            0      0.00%      0.00% # Number of insts issued each cycle
system.cpu0.iq.issued_per_cycle::0         1304773834     57.21%     57.21% # Number of insts issued each cycle
system.cpu0.iq.issued_per_cycle::1          698525169     30.63%     87.84% # Number of insts issued each cycle
system.cpu0.iq.issued_per_cycle::2          199875152      8.76%     96.60% # Number of insts issued each cycle
system.cpu0.iq.issued_per_cycle::3           61009252      2.68%     99.28% # Number of insts issued each cycle
system.cpu0.iq.issued_per_cycle::4           11024260      0.48%     99.76% # Number of insts issued each cycle
system.cpu0.iq.issued_per_cycle::5            2635786      0.12%     99.88% # Number of insts issued each cycle
system.cpu0.iq.issued_per_cycle::6            1647297      0.07%     99.95% # Number of insts issued each cycle
system.cpu0.iq.issued_per_cycle::7            1002253      0.04%     99.99% # Number of insts issued each cycle
system.cpu0.iq.issued_per_cycle::8             171191      0.01%    100.00% # Number of insts issued each cycle
system.cpu0.iq.issued_per_cycle::overflows            0      0.00%    100.00% # Number of insts issued each cycle
system.cpu0.iq.issued_per_cycle::min_value            0                       # Number of insts issued each cycle
system.cpu0.iq.issued_per_cycle::max_value            8                       # Number of insts issued each cycle
system.cpu0.iq.issued_per_cycle::total     2280664194                       # Number of insts issued each cycle
system.cpu0.iq.rate                          0.546784                       # Inst issue rate
system.cpu0.iq.vec_alu_accesses                     0                       # Number of vector alu accesses
system.cpu0.iq.vec_inst_queue_reads                 0                       # Number of vector instruction queue reads
system.cpu0.iq.vec_inst_queue_wakeup_accesses            0                       # Number of vector instruction queue wakeup accesses
system.cpu0.iq.vec_inst_queue_writes                0                       # Number of vector instruction queue writes
system.cpu0.itb.accesses                            0                       # DTB accesses
system.cpu0.itb.hits                                0                       # DTB hits
system.cpu0.itb.misses                              0                       # DTB misses
system.cpu0.itb.read_accesses                       0                       # DTB read accesses
system.cpu0.itb.read_hits                           0                       # DTB read hits
system.cpu0.itb.read_misses                         0                       # DTB read misses
system.cpu0.itb.write_accesses                      0                       # DTB write accesses
system.cpu0.itb.write_hits                          0                       # DTB write hits
system.cpu0.itb.write_misses                        0                       # DTB write misses
system.cpu0.memDep0.conflictingLoads         19461115                       # Number of conflicting loads.
system.cpu0.memDep0.conflictingStores         1391815                       # Number of conflicting stores.
system.cpu0.memDep0.insertedLoads           422762562                       # Number of loads inserted to the mem dependence unit.
system.cpu0.memDep0.insertedStores          155705808                       # Number of stores inserted to the mem dependence unit.
system.cpu0.misc_regfile_reads                   1887                       # number of misc regfile reads
system.cpu0.misc_regfile_writes                    22                       # number of misc regfile writes
system.cpu0.numCycles                      2481507729                       # number of cpu cycles simulated
system.cpu0.numWorkItemsCompleted                   0                       # number of work items this cpu completed
system.cpu0.numWorkItemsStarted                     0                       # number of work items this cpu started
system.cpu0.quiesceCycles                     4793677                       # Total number of cycles that CPU has spent quiesced or waiting for an interrupt
system.cpu0.rename.BlockCycles              365678141                       # Number of cycles rename is blocking
system.cpu0.rename.CommittedMaps            845219746                       # Number of HB maps that are committed
system.cpu0.rename.IQFullEvents              14116977                       # Number of times rename has blocked due to IQ full
system.cpu0.rename.IdleCycles               913243897                       # Number of cycles rename is idle
system.cpu0.rename.LQFullEvents               9481157                       # Number of times rename has blocked due to LQ full
system.cpu0.rename.ROBFullEvents                12439                       # Number of times rename has blocked due to ROB full
system.cpu0.rename.RenameLookups           1695227098                       # Number of register rename lookups that rename has made
system.cpu0.rename.RenamedInsts            1380110362                       # Number of instructions processed by rename
system.cpu0.rename.RenamedOperands          893478810                       # Number of destination operands rename has renamed
system.cpu0.rename.RunCycles                951154286                       # Number of cycles rename is running
system.cpu0.rename.SQFullEvents              17410411                       # Number of times rename has blocked due to SQ full
system.cpu0.rename.SquashCycles               8702292                       # Number of cycles rename is squashing
system.cpu0.rename.UnblockCycles             41431479                       # Number of cycles rename is unblocking
system.cpu0.rename.UndoneMaps                48259000                       # Number of HB maps that are undone due to squashing
system.cpu0.rename.fp_rename_lookups               45                       # Number of floating rename lookups
system.cpu0.rename.int_rename_lookups      1695227053                       # Number of integer rename lookups
system.cpu0.rename.serializeStallCycles        454099                       # count of cycles rename stalled for serializing inst
system.cpu0.rename.serializingInsts              5857                       # count of serializing insts renamed
system.cpu0.rename.skidInsts                 31132604                       # count of insts added to the skid buffer
system.cpu0.rename.tempSerializingInsts          5857                       # count of temporary serializing insts renamed
system.cpu0.rob.rob_reads                  3598089590                       # The number of ROB reads
system.cpu0.rob.rob_writes                 2735075175                       # The number of ROB writes
system.cpu0.timesIdled                       32911012                       # Number of times that the entire CPU went into an idle state and unscheduled itself
system.cpu0.workload.numSyscalls                 1854                       # Number of system calls
system.cpu1.branchPred.BTBCorrect                   0                       # Number of correct BTB predictions (this stat may not work properly.
system.cpu1.branchPred.BTBHitPct            91.195340                       # BTB Hit Percentage
system.cpu1.branchPred.BTBHits               20004008                       # Number of BTB hits
system.cpu1.branchPred.BTBLookups            21935340                       # Number of BTB lookups
system.cpu1.branchPred.RASInCorrect                 0                       # Number of incorrect RAS predictions.
system.cpu1.branchPred.condIncorrect          2705816                       # Number of conditional branches incorrect
system.cpu1.branchPred.condPredicted         29899219                       # Number of conditional branches predicted
system.cpu1.branchPred.indirectHits           1010055                       # Number of indirect target hits.
system.cpu1.branchPred.indirectLookups        1021152                       # Number of indirect predictor lookups.
system.cpu1.branchPred.indirectMisses           11097                       # Number of indirect misses.
system.cpu1.branchPred.lookups               34189575                       # Number of BP lookups
system.cpu1.branchPred.usedRAS                      0                       # Number of times the RAS was used to get a target.
system.cpu1.branchPredindirectMispredicted        47755                       # Number of mispredicted indirect branches.
system.cpu1.commit.amos                       2099995                       # Number of atomic instructions committed
system.cpu1.commit.branchMispredicts          1927247                       # The number of times a branch was mispredicted
system.cpu1.commit.branches                  28126682                       # Number of branches committed
system.cpu1.commit.bw_lim_events              3175478                       # number cycles where commit BW limit reached
system.cpu1.commit.commitNonSpecStalls        6300657                       # The number of times commit has been forced to stall to communicate backwards
system.cpu1.commit.commitSquashedInsts       12407819                       # The number of squashed insts skipped by commit
system.cpu1.commit.committedInsts           120106781                       # Number of instructions committed
system.cpu1.commit.committedOps             122206955                       # Number of ops (including micro ops) committed
system.cpu1.commit.committed_per_cycle::samples    425827362                       # Number of insts commited each cycle
system.cpu1.commit.committed_per_cycle::mean     0.286987                       # Number of insts commited each cycle
system.cpu1.commit.committed_per_cycle::stdev     1.037380                       # Number of insts commited each cycle
system.cpu1.commit.committed_per_cycle::underflows            0      0.00%      0.00% # Number of insts commited each cycle
system.cpu1.commit.committed_per_cycle::0    374226025     87.88%     87.88% # Number of insts commited each cycle
system.cpu1.commit.committed_per_cycle::1     25762456      6.05%     93.93% # Number of insts commited each cycle
system.cpu1.commit.committed_per_cycle::2      9478381      2.23%     96.16% # Number of insts commited each cycle
system.cpu1.commit.committed_per_cycle::3      7366779      1.73%     97.89% # Number of insts commited each cycle
system.cpu1.commit.committed_per_cycle::4      2105660      0.49%     98.38% # Number of insts commited each cycle
system.cpu1.commit.committed_per_cycle::5      1033546      0.24%     98.63% # Number of insts commited each cycle
system.cpu1.commit.committed_per_cycle::6      2360053      0.55%     99.18% # Number of insts commited each cycle
system.cpu1.commit.committed_per_cycle::7       318984      0.07%     99.25% # Number of insts commited each cycle
system.cpu1.commit.committed_per_cycle::8      3175478      0.75%    100.00% # Number of insts commited each cycle
system.cpu1.commit.committed_per_cycle::overflows            0      0.00%    100.00% # Number of insts commited each cycle
system.cpu1.commit.committed_per_cycle::min_value            0                       # Number of insts commited each cycle
system.cpu1.commit.committed_per_cycle::max_value            8                       # Number of insts commited each cycle
system.cpu1.commit.committed_per_cycle::total    425827362                       # Number of insts commited each cycle
system.cpu1.commit.fp_insts                        12                       # Number of committed floating point instructions.
system.cpu1.commit.function_calls             1799065                       # Number of function calls committed.
system.cpu1.commit.int_insts                116643267                       # Number of committed integer instructions.
system.cpu1.commit.loads                     30181798                       # Number of loads committed
system.cpu1.commit.membars                    4200122                       # Number of memory barriers committed
system.cpu1.commit.op_class_0::No_OpClass      4200122      3.44%      3.44% # Class of committed instruction
system.cpu1.commit.op_class_0::IntAlu        76694436     62.76%     66.19% # Class of committed instruction
system.cpu1.commit.op_class_0::IntMult             44      0.00%     66.19% # Class of committed instruction
system.cpu1.commit.op_class_0::IntDiv              88      0.00%     66.19% # Class of committed instruction
system.cpu1.commit.op_class_0::FloatAdd             0      0.00%     66.19% # Class of committed instruction
system.cpu1.commit.op_class_0::FloatCmp             0      0.00%     66.19% # Class of committed instruction
system.cpu1.commit.op_class_0::FloatCvt             0      0.00%     66.19% # Class of committed instruction
system.cpu1.commit.op_class_0::FloatMult            0      0.00%     66.19% # Class of committed instruction
system.cpu1.commit.op_class_0::FloatMultAcc            0      0.00%     66.19% # Class of committed instruction
system.cpu1.commit.op_class_0::FloatDiv             0      0.00%     66.19% # Class of committed instruction
system.cpu1.commit.op_class_0::FloatMisc            0      0.00%     66.19% # Class of committed instruction
system.cpu1.commit.op_class_0::FloatSqrt            0      0.00%     66.19% # Class of committed instruction
system.cpu1.commit.op_class_0::SimdAdd              0      0.00%     66.19% # Class of committed instruction
system.cpu1.commit.op_class_0::SimdAddAcc            0      0.00%     66.19% # Class of committed instruction
system.cpu1.commit.op_class_0::SimdAlu              0      0.00%     66.19% # Class of committed instruction
system.cpu1.commit.op_class_0::SimdCmp              0      0.00%     66.19% # Class of committed instruction
system.cpu1.commit.op_class_0::SimdCvt              0      0.00%     66.19% # Class of committed instruction
system.cpu1.commit.op_class_0::SimdMisc             0      0.00%     66.19% # Class of committed instruction
system.cpu1.commit.op_class_0::SimdMult             0      0.00%     66.19% # Class of committed instruction
system.cpu1.commit.op_class_0::SimdMultAcc            0      0.00%     66.19% # Class of committed instruction
system.cpu1.commit.op_class_0::SimdShift            0      0.00%     66.19% # Class of committed instruction
system.cpu1.commit.op_class_0::SimdShiftAcc            0      0.00%     66.19% # Class of committed instruction
system.cpu1.commit.op_class_0::SimdDiv              0      0.00%     66.19% # Class of committed instruction
system.cpu1.commit.op_class_0::SimdSqrt             0      0.00%     66.19% # Class of committed instruction
system.cpu1.commit.op_class_0::SimdFloatAdd            0      0.00%     66.19% # Class of committed instruction
system.cpu1.commit.op_class_0::SimdFloatAlu            0      0.00%     66.19% # Class of committed instruction
system.cpu1.commit.op_class_0::SimdFloatCmp            0      0.00%     66.19% # Class of committed instruction
system.cpu1.commit.op_class_0::SimdFloatCvt            0      0.00%     66.19% # Class of committed instruction
system.cpu1.commit.op_class_0::SimdFloatDiv            0      0.00%     66.19% # Class of committed instruction
system.cpu1.commit.op_class_0::SimdFloatMisc            0      0.00%     66.19% # Class of committed instruction
system.cpu1.commit.op_class_0::SimdFloatMult            0      0.00%     66.19% # Class of committed instruction
system.cpu1.commit.op_class_0::SimdFloatMultAcc            0      0.00%     66.19% # Class of committed instruction
system.cpu1.commit.op_class_0::SimdFloatSqrt            0      0.00%     66.19% # Class of committed instruction
system.cpu1.commit.op_class_0::SimdReduceAdd            0      0.00%     66.19% # Class of committed instruction
system.cpu1.commit.op_class_0::SimdReduceAlu            0      0.00%     66.19% # Class of committed instruction
system.cpu1.commit.op_class_0::SimdReduceCmp            0      0.00%     66.19% # Class of committed instruction
system.cpu1.commit.op_class_0::SimdFloatReduceAdd            0      0.00%     66.19% # Class of committed instruction
system.cpu1.commit.op_class_0::SimdFloatReduceCmp            0      0.00%     66.19% # Class of committed instruction
system.cpu1.commit.op_class_0::SimdAes              0      0.00%     66.19% # Class of committed instruction
system.cpu1.commit.op_class_0::SimdAesMix            0      0.00%     66.19% # Class of committed instruction
system.cpu1.commit.op_class_0::SimdSha1Hash            0      0.00%     66.19% # Class of committed instruction
system.cpu1.commit.op_class_0::SimdSha1Hash2            0      0.00%     66.19% # Class of committed instruction
system.cpu1.commit.op_class_0::SimdSha256Hash            0      0.00%     66.19% # Class of committed instruction
system.cpu1.commit.op_class_0::SimdSha256Hash2            0      0.00%     66.19% # Class of committed instruction
system.cpu1.commit.op_class_0::SimdShaSigma2            0      0.00%     66.19% # Class of committed instruction
system.cpu1.commit.op_class_0::SimdShaSigma3            0      0.00%     66.19% # Class of committed instruction
system.cpu1.commit.op_class_0::SimdPredAlu            0      0.00%     66.19% # Class of committed instruction
system.cpu1.commit.op_class_0::MemRead       32281793     26.42%     92.61% # Class of committed instruction
system.cpu1.commit.op_class_0::MemWrite       9030460      7.39%    100.00% # Class of committed instruction
system.cpu1.commit.op_class_0::FloatMemRead            0      0.00%    100.00% # Class of committed instruction
system.cpu1.commit.op_class_0::FloatMemWrite           12      0.00%    100.00% # Class of committed instruction
system.cpu1.commit.op_class_0::IprAccess            0      0.00%    100.00% # Class of committed instruction
system.cpu1.commit.op_class_0::InstPrefetch            0      0.00%    100.00% # Class of committed instruction
system.cpu1.commit.op_class_0::total        122206955                       # Class of committed instruction
system.cpu1.commit.refs                      41312265                       # Number of memory references committed
system.cpu1.commit.swp_count                        0                       # Number of s/w prefetches committed
system.cpu1.commit.vec_insts                        0                       # Number of committed Vector instructions.
system.cpu1.committedInsts                  120106781                       # Number of Instructions Simulated
system.cpu1.committedOps                    122206955                       # Number of Ops (including micro ops) Simulated
system.cpu1.cpi                              3.576063                       # CPI: Cycles Per Instruction
system.cpu1.cpi_total                        3.576063                       # CPI: Total CPI of All Threads
system.cpu1.decode.BlockedCycles            333544682                       # Number of cycles decode is blocked
system.cpu1.decode.BranchMispred               828437                       # Number of times decode detected a branch misprediction
system.cpu1.decode.BranchResolved            19180593                       # Number of times decode resolved a branch
system.cpu1.decode.DecodedInsts             141348207                       # Number of instructions handled by decode
system.cpu1.decode.IdleCycles                22434689                       # Number of cycles decode is idle
system.cpu1.decode.RunCycles                 65788285                       # Number of cycles decode is running
system.cpu1.decode.SquashCycles               1928380                       # Number of cycles decode is squashing
system.cpu1.decode.SquashedInsts              1922161                       # Number of squashed instructions handled by decode
system.cpu1.decode.UnblockCycles              4912464                       # Number of cycles decode is unblocking
system.cpu1.dtb.accesses                            0                       # DTB accesses
system.cpu1.dtb.hits                                0                       # DTB hits
system.cpu1.dtb.misses                              0                       # DTB misses
system.cpu1.dtb.read_accesses                       0                       # DTB read accesses
system.cpu1.dtb.read_hits                           0                       # DTB read hits
system.cpu1.dtb.read_misses                         0                       # DTB read misses
system.cpu1.dtb.write_accesses                      0                       # DTB write accesses
system.cpu1.dtb.write_hits                          0                       # DTB write hits
system.cpu1.dtb.write_misses                        0                       # DTB write misses
system.cpu1.fetch.Branches                   34189575                       # Number of branches that fetch encountered
system.cpu1.fetch.CacheLines                 20653307                       # Number of cache lines fetched
system.cpu1.fetch.Cycles                    403271412                       # Number of cycles fetch has run and was not squashing or blocked
system.cpu1.fetch.IcacheSquashes               228705                       # Number of outstanding Icache misses that were squashed
system.cpu1.fetch.Insts                     145120518                       # Number of instructions fetch has processed
system.cpu1.fetch.MiscStallCycles                   1                       # Number of cycles fetch has spent waiting on interrupts, or bad addresses, or out of MSHRs
system.cpu1.fetch.SquashCycles                5413898                       # Number of cycles fetch has spent squashing
system.cpu1.fetch.branchRate                 0.079601                       # Number of branch fetches per cycle
system.cpu1.fetch.icacheStallCycles          22630138                       # Number of cycles fetch is stalled on an Icache miss
system.cpu1.fetch.predictedBranches          21014063                       # Number of branches that fetch has predicted taken
system.cpu1.fetch.rate                       0.337875                       # Number of inst fetches per cycle
system.cpu1.fetch.rateDist::samples         428608500                       # Number of instructions fetched each cycle (Total)
system.cpu1.fetch.rateDist::mean             0.343487                       # Number of instructions fetched each cycle (Total)
system.cpu1.fetch.rateDist::stdev            0.763754                       # Number of instructions fetched each cycle (Total)
system.cpu1.fetch.rateDist::underflows              0      0.00%      0.00% # Number of instructions fetched each cycle (Total)
system.cpu1.fetch.rateDist::0               334379597     78.02%     78.02% # Number of instructions fetched each cycle (Total)
system.cpu1.fetch.rateDist::1                60044497     14.01%     92.02% # Number of instructions fetched each cycle (Total)
system.cpu1.fetch.rateDist::2                19609536      4.58%     96.60% # Number of instructions fetched each cycle (Total)
system.cpu1.fetch.rateDist::3                10931302      2.55%     99.15% # Number of instructions fetched each cycle (Total)
system.cpu1.fetch.rateDist::4                 3111321      0.73%     99.88% # Number of instructions fetched each cycle (Total)
system.cpu1.fetch.rateDist::5                  475461      0.11%     99.99% # Number of instructions fetched each cycle (Total)
system.cpu1.fetch.rateDist::6                   56499      0.01%    100.00% # Number of instructions fetched each cycle (Total)
system.cpu1.fetch.rateDist::7                       7      0.00%    100.00% # Number of instructions fetched each cycle (Total)
system.cpu1.fetch.rateDist::8                     280      0.00%    100.00% # Number of instructions fetched each cycle (Total)
system.cpu1.fetch.rateDist::overflows               0      0.00%    100.00% # Number of instructions fetched each cycle (Total)
system.cpu1.fetch.rateDist::min_value               0                       # Number of instructions fetched each cycle (Total)
system.cpu1.fetch.rateDist::max_value               8                       # Number of instructions fetched each cycle (Total)
system.cpu1.fetch.rateDist::total           428608500                       # Number of instructions fetched each cycle (Total)
system.cpu1.fp_regfile_reads                       12                       # number of floating regfile reads
system.cpu1.idleCycles                         900917                       # Total number of cycles that the CPU has spent unscheduled due to idling
system.cpu1.iew.branchMispredicts             1994321                       # Number of branch mispredicts detected at execute
system.cpu1.iew.exec_branches                29927541                       # Number of branches executed
system.cpu1.iew.exec_nop                            0                       # number of nop insts executed
system.cpu1.iew.exec_rate                    0.303389                       # Inst execution rate
system.cpu1.iew.exec_refs                    44309553                       # number of memory reference insts executed
system.cpu1.iew.exec_stores                  11418032                       # Number of stores executed
system.cpu1.iew.exec_swp                            0                       # number of swp insts executed
system.cpu1.iew.iewBlockCycles              283490182                       # Number of cycles IEW is blocking
system.cpu1.iew.iewDispLoadInsts             33515643                       # Number of dispatched load instructions
system.cpu1.iew.iewDispNonSpecInsts           2100705                       # Number of dispatched non-speculative instructions
system.cpu1.iew.iewDispSquashedInsts          2345829                       # Number of squashed instructions skipped by dispatch
system.cpu1.iew.iewDispStoreInsts            11619750                       # Number of dispatched store instructions
system.cpu1.iew.iewDispatchedInsts          134580254                       # Number of instructions dispatched to IQ
system.cpu1.iew.iewExecLoadInsts             32891521                       # Number of load instructions executed
system.cpu1.iew.iewExecSquashedInsts          2081488                       # Number of squashed instructions skipped in execute
system.cpu1.iew.iewExecutedInsts            130308491                       # Number of executed instructions
system.cpu1.iew.iewIQFullEvents               1922398                       # Number of times the IQ has become full, causing a stall
system.cpu1.iew.iewIdleCycles                       0                       # Number of cycles IEW is idle
system.cpu1.iew.iewLSQFullEvents              4237151                       # Number of times the LSQ has become full, causing a stall
system.cpu1.iew.iewSquashCycles               1928380                       # Number of cycles IEW is squashing
system.cpu1.iew.iewUnblockCycles              8757823                       # Number of cycles IEW is unblocking
system.cpu1.iew.lsq.thread0.blockedLoads            0                       # Number of blocked loads due to partial load-store forwarding
system.cpu1.iew.lsq.thread0.cacheBlocked        82905                       # Number of times an access to memory failed due to the cache being blocked
system.cpu1.iew.lsq.thread0.forwLoads          495528                       # Number of loads that had data forwarded from stores
system.cpu1.iew.lsq.thread0.ignoredResponses        15729                       # Number of memory responses ignored because the instruction is squashed
system.cpu1.iew.lsq.thread0.invAddrLoads            0                       # Number of loads ignored due to an invalid address
system.cpu1.iew.lsq.thread0.invAddrSwpfs            0                       # Number of software prefetches ignored due to an invalid address
system.cpu1.iew.lsq.thread0.memOrderViolation         1533                       # Number of memory ordering violations
system.cpu1.iew.lsq.thread0.rescheduledLoads         8110                       # Number of loads that were rescheduled
system.cpu1.iew.lsq.thread0.squashedLoads      3333845                       # Number of loads squashed
system.cpu1.iew.lsq.thread0.squashedStores       489283                       # Number of stores squashed
system.cpu1.iew.memOrderViolationEvents          1533                       # Number of memory order violations
system.cpu1.iew.predictedNotTakenIncorrect       528343                       # Number of branches that were predicted not taken incorrectly
system.cpu1.iew.predictedTakenIncorrect       1465978                       # Number of branches that were predicted taken incorrectly
system.cpu1.iew.wb_consumers                 72720584                       # num instructions consuming a value
system.cpu1.iew.wb_count                    129119205                       # cumulative count of insts written-back
system.cpu1.iew.wb_fanout                    0.864681                       # average fanout of values written-back
system.cpu1.iew.wb_producers                 62880099                       # num instructions producing a value
system.cpu1.iew.wb_rate                      0.300620                       # insts written-back per cycle
system.cpu1.iew.wb_sent                     129157915                       # cumulative count of insts sent to commit
system.cpu1.int_regfile_reads               165661581                       # number of integer regfile reads
system.cpu1.int_regfile_writes               86704568                       # number of integer regfile writes
system.cpu1.ipc                              0.279637                       # IPC: Instructions Per Cycle
system.cpu1.ipc_total                        0.279637                       # IPC: Total IPC of All Threads
system.cpu1.iq.FU_type_0::No_OpClass          4200216      3.17%      3.17% # Type of FU issued
system.cpu1.iq.FU_type_0::IntAlu             83255450     62.89%     66.06% # Type of FU issued
system.cpu1.iq.FU_type_0::IntMult                  46      0.00%     66.06% # Type of FU issued
system.cpu1.iq.FU_type_0::IntDiv                   88      0.00%     66.06% # Type of FU issued
system.cpu1.iq.FU_type_0::FloatAdd                  0      0.00%     66.06% # Type of FU issued
system.cpu1.iq.FU_type_0::FloatCmp                  0      0.00%     66.06% # Type of FU issued
system.cpu1.iq.FU_type_0::FloatCvt                  0      0.00%     66.06% # Type of FU issued
system.cpu1.iq.FU_type_0::FloatMult                 0      0.00%     66.06% # Type of FU issued
system.cpu1.iq.FU_type_0::FloatMultAcc              0      0.00%     66.06% # Type of FU issued
system.cpu1.iq.FU_type_0::FloatDiv                  0      0.00%     66.06% # Type of FU issued
system.cpu1.iq.FU_type_0::FloatMisc                 0      0.00%     66.06% # Type of FU issued
system.cpu1.iq.FU_type_0::FloatSqrt                 0      0.00%     66.06% # Type of FU issued
system.cpu1.iq.FU_type_0::SimdAdd                   0      0.00%     66.06% # Type of FU issued
system.cpu1.iq.FU_type_0::SimdAddAcc                0      0.00%     66.06% # Type of FU issued
system.cpu1.iq.FU_type_0::SimdAlu                   0      0.00%     66.06% # Type of FU issued
system.cpu1.iq.FU_type_0::SimdCmp                   0      0.00%     66.06% # Type of FU issued
system.cpu1.iq.FU_type_0::SimdCvt                   0      0.00%     66.06% # Type of FU issued
system.cpu1.iq.FU_type_0::SimdMisc                  0      0.00%     66.06% # Type of FU issued
system.cpu1.iq.FU_type_0::SimdMult                  0      0.00%     66.06% # Type of FU issued
system.cpu1.iq.FU_type_0::SimdMultAcc               0      0.00%     66.06% # Type of FU issued
system.cpu1.iq.FU_type_0::SimdShift                 0      0.00%     66.06% # Type of FU issued
system.cpu1.iq.FU_type_0::SimdShiftAcc              0      0.00%     66.06% # Type of FU issued
system.cpu1.iq.FU_type_0::SimdDiv                   0      0.00%     66.06% # Type of FU issued
system.cpu1.iq.FU_type_0::SimdSqrt                  0      0.00%     66.06% # Type of FU issued
system.cpu1.iq.FU_type_0::SimdFloatAdd              0      0.00%     66.06% # Type of FU issued
system.cpu1.iq.FU_type_0::SimdFloatAlu              0      0.00%     66.06% # Type of FU issued
system.cpu1.iq.FU_type_0::SimdFloatCmp              0      0.00%     66.06% # Type of FU issued
system.cpu1.iq.FU_type_0::SimdFloatCvt              0      0.00%     66.06% # Type of FU issued
system.cpu1.iq.FU_type_0::SimdFloatDiv              0      0.00%     66.06% # Type of FU issued
system.cpu1.iq.FU_type_0::SimdFloatMisc             0      0.00%     66.06% # Type of FU issued
system.cpu1.iq.FU_type_0::SimdFloatMult             0      0.00%     66.06% # Type of FU issued
system.cpu1.iq.FU_type_0::SimdFloatMultAcc            0      0.00%     66.06% # Type of FU issued
system.cpu1.iq.FU_type_0::SimdFloatSqrt             0      0.00%     66.06% # Type of FU issued
system.cpu1.iq.FU_type_0::SimdReduceAdd             0      0.00%     66.06% # Type of FU issued
system.cpu1.iq.FU_type_0::SimdReduceAlu             0      0.00%     66.06% # Type of FU issued
system.cpu1.iq.FU_type_0::SimdReduceCmp             0      0.00%     66.06% # Type of FU issued
system.cpu1.iq.FU_type_0::SimdFloatReduceAdd            0      0.00%     66.06% # Type of FU issued
system.cpu1.iq.FU_type_0::SimdFloatReduceCmp            0      0.00%     66.06% # Type of FU issued
system.cpu1.iq.FU_type_0::SimdAes                   0      0.00%     66.06% # Type of FU issued
system.cpu1.iq.FU_type_0::SimdAesMix                0      0.00%     66.06% # Type of FU issued
system.cpu1.iq.FU_type_0::SimdSha1Hash              0      0.00%     66.06% # Type of FU issued
system.cpu1.iq.FU_type_0::SimdSha1Hash2             0      0.00%     66.06% # Type of FU issued
system.cpu1.iq.FU_type_0::SimdSha256Hash            0      0.00%     66.06% # Type of FU issued
system.cpu1.iq.FU_type_0::SimdSha256Hash2            0      0.00%     66.06% # Type of FU issued
system.cpu1.iq.FU_type_0::SimdShaSigma2             0      0.00%     66.06% # Type of FU issued
system.cpu1.iq.FU_type_0::SimdShaSigma3             0      0.00%     66.06% # Type of FU issued
system.cpu1.iq.FU_type_0::SimdPredAlu               0      0.00%     66.06% # Type of FU issued
system.cpu1.iq.FU_type_0::MemRead            35581670     26.88%     92.94% # Type of FU issued
system.cpu1.iq.FU_type_0::MemWrite            9352497      7.06%    100.00% # Type of FU issued
system.cpu1.iq.FU_type_0::FloatMemRead              0      0.00%    100.00% # Type of FU issued
system.cpu1.iq.FU_type_0::FloatMemWrite            12      0.00%    100.00% # Type of FU issued
system.cpu1.iq.FU_type_0::IprAccess                 0      0.00%    100.00% # Type of FU issued
system.cpu1.iq.FU_type_0::InstPrefetch              0      0.00%    100.00% # Type of FU issued
system.cpu1.iq.FU_type_0::total             132389979                       # Type of FU issued
system.cpu1.iq.fp_alu_accesses                     14                       # Number of floating point alu accesses
system.cpu1.iq.fp_inst_queue_reads                 26                       # Number of floating instruction queue reads
system.cpu1.iq.fp_inst_queue_wakeup_accesses           12                       # Number of floating instruction queue wakeup accesses
system.cpu1.iq.fp_inst_queue_writes                12                       # Number of floating instruction queue writes
system.cpu1.iq.fu_busy_cnt                    2646971                       # FU busy when requested
system.cpu1.iq.fu_busy_rate                  0.019994                       # FU busy rate (busy events/executed inst)
system.cpu1.iq.fu_full::No_OpClass                  0      0.00%      0.00% # attempts to use FU when none available
system.cpu1.iq.fu_full::IntAlu                 473811     17.90%     17.90% # attempts to use FU when none available
system.cpu1.iq.fu_full::IntMult                     0      0.00%     17.90% # attempts to use FU when none available
system.cpu1.iq.fu_full::IntDiv                      0      0.00%     17.90% # attempts to use FU when none available
system.cpu1.iq.fu_full::FloatAdd                    0      0.00%     17.90% # attempts to use FU when none available
system.cpu1.iq.fu_full::FloatCmp                    0      0.00%     17.90% # attempts to use FU when none available
system.cpu1.iq.fu_full::FloatCvt                    0      0.00%     17.90% # attempts to use FU when none available
system.cpu1.iq.fu_full::FloatMult                   0      0.00%     17.90% # attempts to use FU when none available
system.cpu1.iq.fu_full::FloatMultAcc                0      0.00%     17.90% # attempts to use FU when none available
system.cpu1.iq.fu_full::FloatDiv                    0      0.00%     17.90% # attempts to use FU when none available
system.cpu1.iq.fu_full::FloatMisc                   0      0.00%     17.90% # attempts to use FU when none available
system.cpu1.iq.fu_full::FloatSqrt                   0      0.00%     17.90% # attempts to use FU when none available
system.cpu1.iq.fu_full::SimdAdd                     0      0.00%     17.90% # attempts to use FU when none available
system.cpu1.iq.fu_full::SimdAddAcc                  0      0.00%     17.90% # attempts to use FU when none available
system.cpu1.iq.fu_full::SimdAlu                     0      0.00%     17.90% # attempts to use FU when none available
system.cpu1.iq.fu_full::SimdCmp                     0      0.00%     17.90% # attempts to use FU when none available
system.cpu1.iq.fu_full::SimdCvt                     0      0.00%     17.90% # attempts to use FU when none available
system.cpu1.iq.fu_full::SimdMisc                    0      0.00%     17.90% # attempts to use FU when none available
system.cpu1.iq.fu_full::SimdMult                    0      0.00%     17.90% # attempts to use FU when none available
system.cpu1.iq.fu_full::SimdMultAcc                 0      0.00%     17.90% # attempts to use FU when none available
system.cpu1.iq.fu_full::SimdShift                   0      0.00%     17.90% # attempts to use FU when none available
system.cpu1.iq.fu_full::SimdShiftAcc                0      0.00%     17.90% # attempts to use FU when none available
system.cpu1.iq.fu_full::SimdDiv                     0      0.00%     17.90% # attempts to use FU when none available
system.cpu1.iq.fu_full::SimdSqrt                    0      0.00%     17.90% # attempts to use FU when none available
system.cpu1.iq.fu_full::SimdFloatAdd                0      0.00%     17.90% # attempts to use FU when none available
system.cpu1.iq.fu_full::SimdFloatAlu                0      0.00%     17.90% # attempts to use FU when none available
system.cpu1.iq.fu_full::SimdFloatCmp                0      0.00%     17.90% # attempts to use FU when none available
system.cpu1.iq.fu_full::SimdFloatCvt                0      0.00%     17.90% # attempts to use FU when none available
system.cpu1.iq.fu_full::SimdFloatDiv                0      0.00%     17.90% # attempts to use FU when none available
system.cpu1.iq.fu_full::SimdFloatMisc               0      0.00%     17.90% # attempts to use FU when none available
system.cpu1.iq.fu_full::SimdFloatMult               0      0.00%     17.90% # attempts to use FU when none available
system.cpu1.iq.fu_full::SimdFloatMultAcc            0      0.00%     17.90% # attempts to use FU when none available
system.cpu1.iq.fu_full::SimdFloatSqrt               0      0.00%     17.90% # attempts to use FU when none available
system.cpu1.iq.fu_full::SimdReduceAdd               0      0.00%     17.90% # attempts to use FU when none available
system.cpu1.iq.fu_full::SimdReduceAlu               0      0.00%     17.90% # attempts to use FU when none available
system.cpu1.iq.fu_full::SimdReduceCmp               0      0.00%     17.90% # attempts to use FU when none available
system.cpu1.iq.fu_full::SimdFloatReduceAdd            0      0.00%     17.90% # attempts to use FU when none available
system.cpu1.iq.fu_full::SimdFloatReduceCmp            0      0.00%     17.90% # attempts to use FU when none available
system.cpu1.iq.fu_full::SimdAes                     0      0.00%     17.90% # attempts to use FU when none available
system.cpu1.iq.fu_full::SimdAesMix                  0      0.00%     17.90% # attempts to use FU when none available
system.cpu1.iq.fu_full::SimdSha1Hash                0      0.00%     17.90% # attempts to use FU when none available
system.cpu1.iq.fu_full::SimdSha1Hash2               0      0.00%     17.90% # attempts to use FU when none available
system.cpu1.iq.fu_full::SimdSha256Hash              0      0.00%     17.90% # attempts to use FU when none available
system.cpu1.iq.fu_full::SimdSha256Hash2             0      0.00%     17.90% # attempts to use FU when none available
system.cpu1.iq.fu_full::SimdShaSigma2               0      0.00%     17.90% # attempts to use FU when none available
system.cpu1.iq.fu_full::SimdShaSigma3               0      0.00%     17.90% # attempts to use FU when none available
system.cpu1.iq.fu_full::SimdPredAlu                 0      0.00%     17.90% # attempts to use FU when none available
system.cpu1.iq.fu_full::MemRead               1782042     67.32%     85.22% # attempts to use FU when none available
system.cpu1.iq.fu_full::MemWrite               391116     14.78%    100.00% # attempts to use FU when none available
[...]
system.cpu1.dcache.WriteReq_misses::.cpu1.data      9013724                       # number of WriteReq misses
system.cpu1.dcache.WriteReq_misses::total      9013724                       # number of WriteReq misses
system.cpu1.dcache.WriteReq_miss_latency::.cpu1.data 604038326213                       # number of WriteReq miss cycles
system.cpu1.dcache.WriteReq_miss_latency::total 604038326213                       # number of WriteReq miss cycles
system.cpu1.dcache.WriteReq_accesses::.cpu1.data     13792929                       # number of WriteReq accesses(hits+misses)
system.cpu1.dcache.WriteReq_accesses::total     13792929                       # number of WriteReq accesses(hits+misses)
system.cpu1.dcache.WriteReq_miss_rate::.cpu1.data     0.653503                       # miss rate for WriteReq accesses
system.cpu1.dcache.WriteReq_miss_rate::total     0.653503                       # miss rate for WriteReq accesses
system.cpu1.dcache.WriteReq_avg_miss_latency::.cpu1.data 67013.181923                       # average WriteReq miss latency
system.cpu1.dcache.WriteReq_avg_miss_latency::total 67013.181923                       # average WriteReq miss latency
system.cpu1.dcache.WriteReq_mshr_hits::.cpu1.data      8120190                       # number of WriteReq MSHR hits
system.cpu1.dcache.WriteReq_mshr_hits::total      8120190                       # number of WriteReq MSHR hits
system.cpu1.dcache.WriteReq_mshr_misses::.cpu1.data       893534                       # number of WriteReq MSHR misses
system.cpu1.dcache.WriteReq_mshr_misses::total       893534                       # number of WriteReq MSHR misses
system.cpu1.dcache.WriteReq_mshr_miss_latency::.cpu1.data  75300638650                       # number of WriteReq MSHR miss cycles
system.cpu1.dcache.WriteReq_mshr_miss_latency::total  75300638650                       # number of WriteReq MSHR miss cycles
system.cpu1.dcache.WriteReq_mshr_miss_rate::.cpu1.data     0.064782                       # mshr miss rate for WriteReq accesses
system.cpu1.dcache.WriteReq_mshr_miss_rate::total     0.064782                       # mshr miss rate for WriteReq accesses
system.cpu1.dcache.WriteReq_avg_mshr_miss_latency::.cpu1.data 84272.829741                       # average WriteReq mshr miss latency
system.cpu1.dcache.WriteReq_avg_mshr_miss_latency::total 84272.829741                       # average WriteReq mshr miss latency
system.cpu1.dcache.LoadLockedReq_hits::.cpu1.data        73017                       # number of LoadLockedReq hits
system.cpu1.dcache.LoadLockedReq_hits::total        73017                       # number of LoadLockedReq hits
system.cpu1.dcache.LoadLockedReq_misses::.cpu1.data          751                       # number of LoadLockedReq misses
system.cpu1.dcache.LoadLockedReq_misses::total          751                       # number of LoadLockedReq misses
system.cpu1.dcache.LoadLockedReq_miss_latency::.cpu1.data     29073500                       # number of LoadLockedReq miss cycles
system.cpu1.dcache.LoadLockedReq_miss_latency::total     29073500                       # number of LoadLockedReq miss cycles
system.cpu1.dcache.LoadLockedReq_accesses::.cpu1.data        73768                       # number of LoadLockedReq accesses(hits+misses)
system.cpu1.dcache.LoadLockedReq_accesses::total        73768                       # number of LoadLockedReq accesses(hits+misses)
system.cpu1.dcache.LoadLockedReq_miss_rate::.cpu1.data     0.010181                       # miss rate for LoadLockedReq accesses
system.cpu1.dcache.LoadLockedReq_miss_rate::total     0.010181                       # miss rate for LoadLockedReq accesses
system.cpu1.dcache.LoadLockedReq_avg_miss_latency::.cpu1.data 38713.049268                       # average LoadLockedReq miss latency
system.cpu1.dcache.LoadLockedReq_avg_miss_latency::total 38713.049268                       # average LoadLockedReq miss latency
system.cpu1.dcache.LoadLockedReq_mshr_hits::.cpu1.data          128                       # number of LoadLockedReq MSHR hits
system.cpu1.dcache.LoadLockedReq_mshr_hits::total          128                       # number of LoadLockedReq MSHR hits
system.cpu1.dcache.LoadLockedReq_mshr_misses::.cpu1.data          623                       # number of LoadLockedReq MSHR misses
system.cpu1.dcache.LoadLockedReq_mshr_misses::total          623                       # number of LoadLockedReq MSHR misses
system.cpu1.dcache.LoadLockedReq_mshr_miss_latency::.cpu1.data     23397500                       # number of LoadLockedReq MSHR miss cycles
system.cpu1.dcache.LoadLockedReq_mshr_miss_latency::total     23397500                       # number of LoadLockedReq MSHR miss cycles
system.cpu1.dcache.LoadLockedReq_mshr_miss_rate::.cpu1.data     0.008445                       # mshr miss rate for LoadLockedReq accesses
system.cpu1.dcache.LoadLockedReq_mshr_miss_rate::total     0.008445                       # mshr miss rate for LoadLockedReq accesses
system.cpu1.dcache.LoadLockedReq_avg_mshr_miss_latency::.cpu1.data 37556.179775                       # average LoadLockedReq mshr miss latency
system.cpu1.dcache.LoadLockedReq_avg_mshr_miss_latency::total 37556.179775                       # average LoadLockedReq mshr miss latency
system.cpu1.dcache.StoreCondReq_hits::.cpu1.data        70798                       # number of StoreCondReq hits
system.cpu1.dcache.StoreCondReq_hits::total        70798                       # number of StoreCondReq hits
system.cpu1.dcache.StoreCondReq_misses::.cpu1.data         1737                       # number of StoreCondReq misses
system.cpu1.dcache.StoreCondReq_misses::total         1737                       # number of StoreCondReq misses
system.cpu1.dcache.StoreCondReq_miss_latency::.cpu1.data     11786500                       # number of StoreCondReq miss cycles
system.cpu1.dcache.StoreCondReq_miss_latency::total     11786500                       # number of StoreCondReq miss cycles
system.cpu1.dcache.StoreCondReq_accesses::.cpu1.data        72535                       # number of StoreCondReq accesses(hits+misses)
system.cpu1.dcache.StoreCondReq_accesses::total        72535                       # number of StoreCondReq accesses(hits+misses)
system.cpu1.dcache.StoreCondReq_miss_rate::.cpu1.data     0.023947                       # miss rate for StoreCondReq accesses
system.cpu1.dcache.StoreCondReq_miss_rate::total     0.023947                       # miss rate for StoreCondReq accesses
system.cpu1.dcache.StoreCondReq_avg_miss_latency::.cpu1.data  6785.549799                       # average StoreCondReq miss latency
system.cpu1.dcache.StoreCondReq_avg_miss_latency::total  6785.549799                       # average StoreCondReq miss latency
system.cpu1.dcache.StoreCondReq_mshr_misses::.cpu1.data         1735                       # number of StoreCondReq MSHR misses
system.cpu1.dcache.StoreCondReq_mshr_misses::total         1735                       # number of StoreCondReq MSHR misses
system.cpu1.dcache.StoreCondReq_mshr_miss_latency::.cpu1.data     10065500                       # number of StoreCondReq MSHR miss cycles
system.cpu1.dcache.StoreCondReq_mshr_miss_latency::total     10065500                       # number of StoreCondReq MSHR miss cycles
system.cpu1.dcache.StoreCondReq_mshr_miss_rate::.cpu1.data     0.023919                       # mshr miss rate for StoreCondReq accesses
system.cpu1.dcache.StoreCondReq_mshr_miss_rate::total     0.023919                       # mshr miss rate for StoreCondReq accesses
system.cpu1.dcache.StoreCondReq_avg_mshr_miss_latency::.cpu1.data  5801.440922                       # average StoreCondReq mshr miss latency
system.cpu1.dcache.StoreCondReq_avg_mshr_miss_latency::total  5801.440922                       # average StoreCondReq mshr miss latency
system.cpu1.dcache.StoreCondFailReq_miss_latency::.cpu1.data       251500                       # number of StoreCondFailReq miss cycles
system.cpu1.dcache.StoreCondFailReq_miss_latency::total       251500                       # number of StoreCondFailReq miss cycles
system.cpu1.dcache.StoreCondFailReq_avg_miss_latency::.cpu1.data          inf                       # average StoreCondFailReq miss latency
system.cpu1.dcache.StoreCondFailReq_avg_miss_latency::total          inf                       # average StoreCondFailReq miss latency
system.cpu1.dcache.StoreCondFailReq_mshr_miss_latency::.cpu1.data       237500                       # number of StoreCondFailReq MSHR miss cycles
system.cpu1.dcache.StoreCondFailReq_mshr_miss_latency::total       237500                       # number of StoreCondFailReq MSHR miss cycles
system.cpu1.dcache.StoreCondFailReq_avg_mshr_miss_latency::.cpu1.data          inf                       # average StoreCondFailReq mshr miss latency
system.cpu1.dcache.StoreCondFailReq_avg_mshr_miss_latency::total          inf                       # average StoreCondFailReq mshr miss latency
system.cpu1.dcache.SwapReq_hits::.cpu1.data         9364                       # number of SwapReq hits
system.cpu1.dcache.SwapReq_hits::total           9364                       # number of SwapReq hits
system.cpu1.dcache.SwapReq_misses::.cpu1.data        32108                       # number of SwapReq misses
system.cpu1.dcache.SwapReq_misses::total        32108                       # number of SwapReq misses
system.cpu1.dcache.SwapReq_miss_latency::.cpu1.data   2969974345                       # number of SwapReq miss cycles
system.cpu1.dcache.SwapReq_miss_latency::total   2969974345                       # number of SwapReq miss cycles
system.cpu1.dcache.SwapReq_accesses::.cpu1.data        41472                       # number of SwapReq accesses(hits+misses)
system.cpu1.dcache.SwapReq_accesses::total        41472                       # number of SwapReq accesses(hits+misses)
system.cpu1.dcache.SwapReq_miss_rate::.cpu1.data     0.774209                       # miss rate for SwapReq accesses
system.cpu1.dcache.SwapReq_miss_rate::total     0.774209                       # miss rate for SwapReq accesses
system.cpu1.dcache.SwapReq_avg_miss_latency::.cpu1.data 92499.512427                       # average SwapReq miss latency
system.cpu1.dcache.SwapReq_avg_miss_latency::total 92499.512427                       # average SwapReq miss latency
system.cpu1.dcache.SwapReq_mshr_hits::.cpu1.data            4                       # number of SwapReq MSHR hits
system.cpu1.dcache.SwapReq_mshr_hits::total            4                       # number of SwapReq MSHR hits
system.cpu1.dcache.SwapReq_mshr_misses::.cpu1.data        32104                       # number of SwapReq MSHR misses
system.cpu1.dcache.SwapReq_mshr_misses::total        32104                       # number of SwapReq MSHR misses
system.cpu1.dcache.SwapReq_mshr_miss_latency::.cpu1.data   2937866345                       # number of SwapReq MSHR miss cycles
system.cpu1.dcache.SwapReq_mshr_miss_latency::total   2937866345                       # number of SwapReq MSHR miss cycles
system.cpu1.dcache.SwapReq_mshr_miss_rate::.cpu1.data     0.774113                       # mshr miss rate for SwapReq accesses
system.cpu1.dcache.SwapReq_mshr_miss_rate::total     0.774113                       # mshr miss rate for SwapReq accesses
system.cpu1.dcache.SwapReq_avg_mshr_miss_latency::.cpu1.data 91510.912815                       # average SwapReq mshr miss latency
system.cpu1.dcache.SwapReq_avg_mshr_miss_latency::total 91510.912815                       # average SwapReq mshr miss latency
system.cpu1.dcache.tags.pwrStateResidencyTicks::UNDEFINED 122387692500                       # Cumulative time (in ticks) in various power states
system.cpu1.dcache.tags.tagsinuse           31.854784                       # Cycle average of tags in use
system.cpu1.dcache.tags.total_refs           18090212                       # Total number of references to valid blocks.
system.cpu1.dcache.tags.sampled_refs          1685150                       # Sample count of references to valid blocks.
system.cpu1.dcache.tags.avg_refs            10.735075                       # Average number of references to valid blocks.
system.cpu1.dcache.tags.warmup_cycle                0                       # Cycle when the warmup percentage was hit.
system.cpu1.dcache.tags.occ_blocks::.cpu1.data    31.854784                       # Average occupied blocks per requestor
system.cpu1.dcache.tags.occ_percent::.cpu1.data     0.995462                       # Average percentage of cache occupancy
system.cpu1.dcache.tags.occ_percent::total     0.995462                       # Average percentage of cache occupancy
system.cpu1.dcache.tags.occ_task_id_blocks::1024           29                       # Occupied blocks per task id
system.cpu1.dcache.tags.age_task_id_blocks_1024::1           29                       # Occupied blocks per task id
system.cpu1.dcache.tags.occ_task_id_percent::1024     0.906250                       # Percentage of cache occupancy per task id
system.cpu1.dcache.tags.tag_accesses         57793351                       # Number of tag accesses
system.cpu1.dcache.tags.data_accesses        57793351                       # Number of data accesses
system.cpu_clk_domain.clock                       500                       # Clock period in ticks
system.tol2bus.pwrStateResidencyTicks::UNDEFINED 122387692500                       # Cumulative time (in ticks) in various power states
system.tol2bus.trans_dist::ReadResp           1633523                       # Transaction distribution
system.tol2bus.trans_dist::WritebackDirty      4871908                       # Transaction distribution
system.tol2bus.trans_dist::WritebackClean      1054053                       # Transaction distribution
system.tol2bus.trans_dist::CleanEvict         5446490                       # Transaction distribution
system.tol2bus.trans_dist::HardPFReq          5426383                       # Transaction distribution
system.tol2bus.trans_dist::HardPFResp               1                       # Transaction distribution
system.tol2bus.trans_dist::UpgradeReq            6422                       # Transaction distribution
system.tol2bus.trans_dist::SCUpgradeReq          3536                       # Transaction distribution
system.tol2bus.trans_dist::UpgradeResp           9958                       # Transaction distribution
system.tol2bus.trans_dist::SCUpgradeFailReq           32                       # Transaction distribution
system.tol2bus.trans_dist::UpgradeFailResp           32                       # Transaction distribution
system.tol2bus.trans_dist::ReadExReq          1884387                       # Transaction distribution
system.tol2bus.trans_dist::ReadExResp         1884387                       # Transaction distribution
system.tol2bus.trans_dist::ReadCleanReq         99069                       # Transaction distribution
system.tol2bus.trans_dist::ReadSharedReq      1534456                       # Transaction distribution
system.tol2bus.trans_dist::InvalidateReq          271                       # Transaction distribution
system.tol2bus.trans_dist::InvalidateResp          271                       # Transaction distribution
system.tol2bus.pkt_count_system.cpu0.icache.mem_side::system.l2.cpu_side       204787                       # Packet count per connected master and slave (bytes)
system.tol2bus.pkt_count_system.cpu0.dcache.mem_side::system.l2.cpu_side      5194853                       # Packet count per connected master and slave (bytes)
system.tol2bus.pkt_count_system.cpu1.icache.mem_side::system.l2.cpu_side        92412                       # Packet count per connected master and slave (bytes)
system.tol2bus.pkt_count_system.cpu1.dcache.mem_side::system.l2.cpu_side      5048360                       # Packet count per connected master and slave (bytes)
system.tol2bus.pkt_count::total              10540412                       # Packet count per connected master and slave (bytes)
system.tol2bus.pkt_size_system.cpu0.icache.mem_side::system.l2.cpu_side      8737408                       # Cumulative packet size per connected master and slave (bytes)
system.tol2bus.pkt_size_system.cpu0.dcache.mem_side::system.l2.cpu_side    221084928                       # Cumulative packet size per connected master and slave (bytes)
system.tol2bus.pkt_size_system.cpu1.icache.mem_side::system.l2.cpu_side      3942912                       # Cumulative packet size per connected master and slave (bytes)
system.tol2bus.pkt_size_system.cpu1.dcache.mem_side::system.l2.cpu_side    214850688                       # Cumulative packet size per connected master and slave (bytes)
system.tol2bus.pkt_size::total              448615936                       # Cumulative packet size per connected master and slave (bytes)
system.tol2bus.snoops                        13314768                       # Total snoops (count)
system.tol2bus.snoopTraffic                 155793984                       # Total snoop traffic (bytes)
system.tol2bus.snoop_fanout::samples         16823836                       # Request fanout histogram
system.tol2bus.snoop_fanout::mean            0.204626                       # Request fanout histogram
system.tol2bus.snoop_fanout::stdev           0.410310                       # Request fanout histogram
system.tol2bus.snoop_fanout::underflows             0      0.00%      0.00% # Request fanout histogram
system.tol2bus.snoop_fanout::0               13428334     79.82%     79.82% # Request fanout histogram
system.tol2bus.snoop_fanout::1                3348421     19.90%     99.72% # Request fanout histogram
system.tol2bus.snoop_fanout::2                  47068      0.28%    100.00% # Request fanout histogram
system.tol2bus.snoop_fanout::3                     13      0.00%    100.00% # Request fanout histogram
system.tol2bus.snoop_fanout::4                      0      0.00%    100.00% # Request fanout histogram
system.tol2bus.snoop_fanout::5                      0      0.00%    100.00% # Request fanout histogram
system.tol2bus.snoop_fanout::6                      0      0.00%    100.00% # Request fanout histogram
system.tol2bus.snoop_fanout::7                      0      0.00%    100.00% # Request fanout histogram
system.tol2bus.snoop_fanout::8                      0      0.00%    100.00% # Request fanout histogram
system.tol2bus.snoop_fanout::overflows              0      0.00%    100.00% # Request fanout histogram
system.tol2bus.snoop_fanout::min_value              0                       # Request fanout histogram
system.tol2bus.snoop_fanout::max_value              3                       # Request fanout histogram
system.tol2bus.snoop_fanout::total           16823836                       # Request fanout histogram
system.tol2bus.reqLayer0.occupancy         7026279025                       # Layer occupancy (ticks)
system.tol2bus.reqLayer0.utilization              5.7                       # Layer utilization (%)
system.tol2bus.respLayer1.occupancy        2605091462                       # Layer occupancy (ticks)
system.tol2bus.respLayer1.utilization             2.1                       # Layer utilization (%)
system.tol2bus.respLayer0.occupancy         102651987                       # Layer occupancy (ticks)
system.tol2bus.respLayer0.utilization             0.1                       # Layer utilization (%)
system.tol2bus.respLayer3.occupancy        2531987351                       # Layer occupancy (ticks)
system.tol2bus.respLayer3.utilization             2.1                       # Layer utilization (%)
system.tol2bus.respLayer2.occupancy          46420070                       # Layer occupancy (ticks)
system.tol2bus.respLayer2.utilization             0.0                       # Layer utilization (%)
system.tol2bus.snoopLayer0.occupancy             1501                       # Layer occupancy (ticks)
system.tol2bus.snoopLayer0.utilization            0.0                       # Layer utilization (%)

---------- End Simulation Statistics   ----------
