<<<<<<< HEAD
gem5 Simulator System.  http://gem5.org
gem5 is copyrighted software; use the --copyright option for details.

gem5 compiled Mar 27 2020 00:28:59
gem5 started Apr 28 2020 01:25:24
gem5 executing on muhammet, pid 12509
command line: /home/muhammet/Desktop/gem5/build/RISCV/gem5.fast -re --outdir=/home/muhammet/Desktop/gem5/results/bfs/epinions.el/prefetch_IndirectMemoryPrefetcher_BIPRP --stdout-file=output.txt --stderr-file=error.txt /home/muhammet/Desktop/gem5/configs/example/my_se.py -c /home/muhammet/Desktop/gem5/gapbs/bfs -o '-f /home/muhammet/Desktop/gem5/gapbs/test/graphs/epinions.el' --caches --l1d_size=2kB --l1i_size=2kB --cpu-type=DerivO3CPU -n 4 --mem-size=512MB --l2cache --l2_size=4kB --l2-hwp-type=IndirectMemoryPrefetcher --l2-replacement-policy=BIPRP --l1i_mshrs=4 --l1d_mshrs=4 --l2_mshrs=20 --l1i_write_buffers=8 --l1d_write_buffers=8 --l2_write_buffers=8

Warning: l2-hwp-type is set ( IndirectMemoryPrefetcher ), but the current l2 has a default Hardware Prefetcher of type <class 'm5.params.NullSimObject'> , using the specified by the flag option.
Global frequency set at 1000000000000 ticks per second
**** REAL SIMULATION ****
Read Time:           0.40596
Build Time:          0.05212
Graph has 75888 nodes and 508837 directed edges for degree: 6
Source:                15167
    i                0.00023
   td          6     0.00002
   td        287     0.00003
   td       4925     0.00028
    e                0.00006
   bu      21499     0.00073
   bu      16984     0.00051
   bu       3402     0.00033
    c                0.00014
   td        477     0.00013
   td         79     0.00003
   td         13     0.00002
   td          3     0.00001
   td          0     0.00001
Trial Time:          0.00295
Source:                66430
    i                0.00022
   td          1     0.00002
   td         15     0.00002
   td         43     0.00002
   td       1074     0.00006
    e                0.00002
   bu      11778     0.00082
   bu      24737     0.00064
   bu       8428     0.00040
   bu       1343     0.00030
    c                0.00012
   td        215     0.00006
=======
Redirecting stdout to /vol1/msoyturk/gem5/results/bfs/epinions.el/prefetch_IndirectMemoryPrefetcher_BIPRP/output.txt
Redirecting stderr to /vol1/msoyturk/gem5/results/bfs/epinions.el/prefetch_IndirectMemoryPrefetcher_BIPRP/error.txt
gem5 Simulator System.  http://gem5.org
gem5 is copyrighted software; use the --copyright option for details.

gem5 compiled Apr 26 2020 13:32:47
gem5 started May  4 2020 15:28:30
gem5 executing on draco, pid 7846
command line: /vol1/msoyturk/gem5/build/RISCV/gem5.fast -re --outdir=/vol1/msoyturk/gem5/results/bfs/epinions.el/prefetch_IndirectMemoryPrefetcher_BIPRP --stdout-file=output.txt --stderr-file=error.txt /vol1/msoyturk/gem5/configs/example/my_se.py -c /vol1/msoyturk/gem5/gapbs/bfs -o '-f /vol1/msoyturk/gem5/gapbs/test/graphs/epinions.el' --caches --l1d_size=2kB --l1i_size=2kB --cpu-type=DerivO3CPU -n 4 --mem-size=512MB --l2cache --l2_size=4kB --l2-hwp-type=IndirectMemoryPrefetcher --l2-replacement-policy=BIPRP --l1i_mshrs=4 --l1d_mshrs=4 --l2_mshrs=20 --l1i_write_buffers=8 --l1d_write_buffers=8 --l2_write_buffers=8

info: Standard input is not a terminal, disabling listeners.
Warning: l2-hwp-type is set ( IndirectMemoryPrefetcher ), but the current l2 has a default Hardware Prefetcher of type <class 'm5.params.NullSimObject'> , using the specified by the flag option.
Global frequency set at 1000000000000 ticks per second
**** REAL SIMULATION ****
Read Time:           0.39625
Build Time:          0.08881
Graph has 75888 nodes and 508837 directed edges for degree: 6
Source:                15167
    i                0.00037
   td          6     0.00002
   td        287     0.00003
   td       4925     0.00047
    e                0.00009
   bu      21499     0.00128
   bu      16984     0.00091
   bu       3402     0.00056
    c                0.00024
   td        477     0.00018
   td         79     0.00004
   td         13     0.00002
   td          3     0.00002
   td          0     0.00001
Trial Time:          0.00473
Source:                66430
    i                0.00037
   td          1     0.00001
   td         15     0.00002
   td         43     0.00002
   td       1074     0.00008
    e                0.00003
   bu      11778     0.00142
   bu      24737     0.00113
   bu       8428     0.00070
   bu       1343     0.00050
    c                0.00022
   td        215     0.00009
>>>>>>> 6be7a0502e78ebf80a09b838e3e9c0d652379c93
   td         32     0.00002
   td          8     0.00002
   td          1     0.00001
   td          0     0.00001
<<<<<<< HEAD
Trial Time:          0.00321
Source:                 1321
    i                0.00022
   td         41     0.00002
   td       2025     0.00009
    e                0.00003
   bu      14472     0.00079
   bu      23257     0.00060
   bu       6688     0.00038
   bu       1017     0.00028
    c                0.00012
   td        141     0.00005
   td         27     0.00002
   td          7     0.00002
   td          0     0.00001
Trial Time:          0.00303
Source:                20546
    i                0.00022
   td         22     0.00002
   td        711     0.00007
   td       9663     0.00055
    e                0.00010
   bu      24102     0.00067
   bu      11015     0.00043
   bu       1878     0.00030
    c                0.00013
   td        237     0.00008
   td         36     0.00002
   td          9     0.00002
   td          2     0.00001
   td          0     0.00001
Trial Time:          0.00306
Source:                31030
    i                0.00022
   td          2     0.00002
=======
Trial Time:          0.00518
Source:                 1321
    i                0.00037
   td         41     0.00002
   td       2025     0.00014
    e                0.00004
   bu      14472     0.00138
   bu      23257     0.00108
   bu       6688     0.00065
   bu       1017     0.00049
    c                0.00022
   td        141     0.00007
   td         27     0.00002
   td          7     0.00002
   td          0     0.00001
Trial Time:          0.00497
Source:                20546
    i                0.00037
   td         22     0.00002
   td        711     0.00009
   td       9663     0.00081
    e                0.00019
   bu      24102     0.00119
   bu      11015     0.00076
   bu       1878     0.00052
    c                0.00023
   td        237     0.00012
   td         36     0.00003
   td          9     0.00002
   td          2     0.00002
   td          0     0.00001
Trial Time:          0.00483
Source:                31030
    i                0.00037
   td          2     0.00001
>>>>>>> 6be7a0502e78ebf80a09b838e3e9c0d652379c93
   td          6     0.00001
   td          2     0.00001
   td          1     0.00001
   td          1     0.00001
   td          0     0.00001
<<<<<<< HEAD
Trial Time:          0.00061
Source:                70363
    i                0.00023
   td          1     0.00002
   td          0     0.00002
Trial Time:          0.00048
Source:                18091
    i                0.00022
   td          4     0.00002
   td        297     0.00003
   td       4960     0.00034
    e                0.00005
   bu      22288     0.00073
   bu      16463     0.00051
   bu       3108     0.00032
    c                0.00014
   td        470     0.00012
   td         72     0.00003
   td         11     0.00002
   td          3     0.00001
   td          0     0.00002
Trial Time:          0.00298
Source:                39112
    i                0.00022
   td          8     0.00002
   td        105     0.00002
   td       3629     0.00016
    e                0.00004
   bu      21005     0.00074
   bu      18295     0.00053
   bu       3969     0.00034
    c                0.00014
   td        555     0.00017
   td         92     0.00003
   td         12     0.00002
   td          5     0.00002
   td          0     0.00002
Trial Time:          0.00288
Source:                64563
    i                0.00022
   td          2     0.00002
   td          1     0.00001
   td         35     0.00002
   td       2860     0.00016
    e                0.00004
   bu      17993     0.00079
   bu      20599     0.00057
   bu       5274     0.00036
   bu        792     0.00028
    c                0.00012
   td         90     0.00004
   td         21     0.00002
   td          8     0.00002
   td          2     0.00001
   td          0     0.00001
Trial Time:          0.00315
Source:                 8459
    i                0.00022
   td          5     0.00002
   td        228     0.00003
   td       4875     0.00027
    e                0.00005
   bu      22929     0.00073
   bu      16039     0.00050
   bu       3071     0.00033
    c                0.00014
   td        450     0.00012
   td         65     0.00003
   td         11     0.00002
   td          3     0.00001
   td          0     0.00002
Trial Time:          0.00289
Source:                61500
    i                0.00022
   td          1     0.00002
   td          3     0.00001
   td        113     0.00002
   td       3632     0.00020
    e                0.00004
   bu      21688     0.00076
   bu      17699     0.00053
   bu       3934     0.00034
    c                0.00014
   td        523     0.00013
   td         67     0.00003
   td         10     0.00002
   td          6     0.00001
   td          0     0.00001
Trial Time:          0.00292
Source:                24539
    i                0.00022
   td          1     0.00001
   td         57     0.00002
   td       2045     0.00011
    e                0.00003
   bu      16584     0.00079
   bu      22153     0.00059
   bu       5843     0.00037
   bu        865     0.00028
    c                0.00012
   td        106     0.00005
=======
Trial Time:          0.00083
Source:                70363
    i                0.00037
   td          1     0.00001
   td          0     0.00001
Trial Time:          0.00070
Source:                18091
    i                0.00037
   td          4     0.00001
   td        297     0.00003
   td       4960     0.00053
    e                0.00009
   bu      22288     0.00128
   bu      16463     0.00090
   bu       3108     0.00055
    c                0.00024
   td        470     0.00018
   td         72     0.00004
   td         11     0.00002
   td          3     0.00001
   td          0     0.00001
Trial Time:          0.00475
Source:                39112
    i                0.00037
   td          8     0.00002
   td        105     0.00002
   td       3629     0.00026
    e                0.00007
   bu      21005     0.00130
   bu      18295     0.00095
   bu       3969     0.00059
    c                0.00025
   td        555     0.00022
   td         92     0.00004
   td         12     0.00002
   td          5     0.00001
   td          0     0.00001
Trial Time:          0.00461
Source:                64563
    i                0.00037
   td          2     0.00001
   td          1     0.00001
   td         35     0.00002
   td       2860     0.00026
    e                0.00006
   bu      17993     0.00138
   bu      20599     0.00102
   bu       5274     0.00062
   bu        792     0.00048
    c                0.00021
   td         90     0.00006
   td         21     0.00002
   td          8     0.00001
   td          2     0.00001
   td          0     0.00001
Trial Time:          0.00508
Source:                 8459
    i                0.00037
   td          5     0.00002
   td        228     0.00004
   td       4875     0.00041
    e                0.00009
   bu      22929     0.00128
   bu      16039     0.00089
   bu       3071     0.00056
    c                0.00024
   td        450     0.00018
   td         65     0.00004
   td         11     0.00002
   td          3     0.00001
   td          0     0.00001
Trial Time:          0.00461
Source:                61500
    i                0.00037
   td          1     0.00001
   td          3     0.00001
   td        113     0.00003
   td       3632     0.00028
    e                0.00007
   bu      21688     0.00132
   bu      17699     0.00094
   bu       3934     0.00058
    c                0.00025
   td        523     0.00021
   td         67     0.00004
   td         10     0.00002
   td          6     0.00001
   td          0     0.00001
Trial Time:          0.00465
Source:                24539
    i                0.00037
   td          1     0.00001
   td         57     0.00002
   td       2045     0.00016
    e                0.00005
   bu      16584     0.00138
   bu      22153     0.00105
   bu       5843     0.00063
   bu        865     0.00048
    c                0.00021
   td        106     0.00006
>>>>>>> 6be7a0502e78ebf80a09b838e3e9c0d652379c93
   td         15     0.00002
   td          6     0.00002
   td          1     0.00001
   td          0     0.00001
<<<<<<< HEAD
Trial Time:          0.00309
Source:                42596
    i                0.00022
   td          1     0.00002
   td         33     0.00002
   td       1514     0.00011
    e                0.00002
   bu      16683     0.00080
   bu      22250     0.00060
   bu       6132     0.00037
   bu        903     0.00028
    c                0.00012
   td        128     0.00005
   td         23     0.00002
   td          8     0.00002
   td          0     0.00002
Trial Time:          0.00307
Source:                   96
    i                0.00022
   td        101     0.00002
   td       2499     0.00013
    e                0.00003
   bu      15941     0.00077
   bu      22284     0.00057
   bu       5855     0.00036
   bu        826     0.00028
    c                0.00012
   td        137     0.00005
=======
Trial Time:          0.00498
Source:                42596
    i                0.00037
   td          1     0.00001
   td         33     0.00002
   td       1514     0.00015
    e                0.00003
   bu      16683     0.00139
   bu      22250     0.00106
   bu       6132     0.00064
   bu        903     0.00048
    c                0.00021
   td        128     0.00006
   td         23     0.00002
   td          8     0.00001
   td          0     0.00001
Trial Time:          0.00496
Source:                   96
    i                0.00037
   td        101     0.00002
   td       2499     0.00021
    e                0.00005
   bu      15941     0.00135
   bu      22284     0.00104
   bu       5855     0.00063
   bu        826     0.00048
    c                0.00021
   td        137     0.00006
>>>>>>> 6be7a0502e78ebf80a09b838e3e9c0d652379c93
   td         26     0.00002
   td          5     0.00002
   td          1     0.00001
   td          0     0.00001
<<<<<<< HEAD
Trial Time:          0.00304
Source:                23803
    i                0.00022
   td          5     0.00002
   td        117     0.00003
   td       2516     0.00017
    e                0.00003
   bu      17602     0.00078
   bu      21087     0.00058
   bu       5454     0.00036
   bu        774     0.00028
    c                0.00011
   td        100     0.00004
   td         16     0.00002
   td          4     0.00002
   td          0     0.00001
Trial Time:          0.00308
Source:                24346
    i                0.00022
   td          1     0.00002
   td         27     0.00002
   td       1813     0.00011
    e                0.00003
   bu      15349     0.00080
   bu      22829     0.00060
   bu       6580     0.00037
   bu        917     0.00029
    c                0.00012
   td        128     0.00005
   td         24     0.00002
   td          8     0.00002
   td          0     0.00002
Trial Time:          0.00308
Average Time:        0.00272
Exiting @ tick 535149757000 because exiting with last active thread context
=======
Trial Time:          0.00497
Source:                23803
    i                0.00037
   td          5     0.00001
   td        117     0.00003
   td       2516     0.00026
    e                0.00005
   bu      17602     0.00137
   bu      21087     0.00103
   bu       5454     0.00062
   bu        774     0.00048
    c                0.00021
   td        100     0.00006
   td         16     0.00002
   td          4     0.00001
   td          0     0.00001
Trial Time:          0.00501
Source:                24346
    i                0.00037
   td          1     0.00001
   td         27     0.00002
   td       1813     0.00014
    e                0.00004
   bu      15349     0.00139
   bu      22829     0.00107
   bu       6580     0.00065
   bu        917     0.00048
    c                0.00021
   td        128     0.00007
   td         24     0.00002
   td          8     0.00002
   td          0     0.00001
Trial Time:          0.00497
Average Time:        0.00436
Exiting @ tick 595062351000 because exiting with last active thread context
>>>>>>> 6be7a0502e78ebf80a09b838e3e9c0d652379c93
