
---------- Begin Simulation Statistics ----------
final_tick                               524862306500                       # Number of ticks from beginning of simulation (restored from checkpoints and never reset)
host_inst_rate                                  63750                       # Simulator instruction rate (inst/s)
host_mem_usage                                 701268                       # Number of bytes of host memory used
host_op_rate                                    63962                       # Simulator op (including micro ops) rate (op/s)
host_seconds                                  9608.95                       # Real time elapsed on the host
host_tick_rate                               54622242                       # Simulator tick rate (ticks/s)
sim_freq                                 1000000000000                       # Frequency of simulated ticks
sim_insts                                   612566043                       # Number of instructions simulated
sim_ops                                     614603638                       # Number of ops (including micro ops) simulated
sim_seconds                                  0.524862                       # Number of seconds simulated
sim_ticks                                524862306500                       # Number of ticks simulated
system.cpu0.branchPred.BTBCorrect                   0                       # Number of correct BTB predictions (this stat may not work properly.
system.cpu0.branchPred.BTBHitPct            86.906918                       # BTB Hit Percentage
system.cpu0.branchPred.BTBHits               78196557                       # Number of BTB hits
system.cpu0.branchPred.BTBLookups            89977367                       # Number of BTB lookups
system.cpu0.branchPred.RASInCorrect                 0                       # Number of incorrect RAS predictions.
system.cpu0.branchPred.condIncorrect          7181829                       # Number of conditional branches incorrect
system.cpu0.branchPred.condPredicted        122045953                       # Number of conditional branches predicted
system.cpu0.branchPred.indirectHits          10770888                       # Number of indirect target hits.
system.cpu0.branchPred.indirectLookups       11001040                       # Number of indirect predictor lookups.
system.cpu0.branchPred.indirectMisses          230152                       # Number of indirect misses.
system.cpu0.branchPred.lookups              156276747                       # Number of BP lookups
system.cpu0.branchPred.usedRAS                      0                       # Number of times the RAS was used to get a target.
system.cpu0.branchPredindirectMispredicted      1060360                       # Number of mispredicted indirect branches.
system.cpu0.commit.amos                       1018207                       # Number of atomic instructions committed
system.cpu0.commit.branchMispredicts          5009785                       # The number of times a branch was mispredicted
system.cpu0.commit.branches                 143207259                       # Number of branches committed
system.cpu0.commit.bw_lim_events             16072109                       # number cycles where commit BW limit reached
system.cpu0.commit.commitNonSpecStalls        3058511                       # The number of times commit has been forced to stall to communicate backwards
system.cpu0.commit.commitSquashedInsts       35212410                       # The number of squashed insts skipped by commit
system.cpu0.commit.committedInsts           580301302                       # Number of instructions committed
system.cpu0.commit.committedOps             581320795                       # Number of ops (including micro ops) committed
system.cpu0.commit.committed_per_cycle::samples    957034161                       # Number of insts commited each cycle
system.cpu0.commit.committed_per_cycle::mean     0.607419                       # Number of insts commited each cycle
system.cpu0.commit.committed_per_cycle::stdev     1.380093                       # Number of insts commited each cycle
system.cpu0.commit.committed_per_cycle::underflows            0      0.00%      0.00% # Number of insts commited each cycle
system.cpu0.commit.committed_per_cycle::0    679556688     71.01%     71.01% # Number of insts commited each cycle
system.cpu0.commit.committed_per_cycle::1    165240413     17.27%     88.27% # Number of insts commited each cycle
system.cpu0.commit.committed_per_cycle::2     37713735      3.94%     92.21% # Number of insts commited each cycle
system.cpu0.commit.committed_per_cycle::3     37028719      3.87%     96.08% # Number of insts commited each cycle
system.cpu0.commit.committed_per_cycle::4     12751851      1.33%     97.41% # Number of insts commited each cycle
system.cpu0.commit.committed_per_cycle::5      4161631      0.43%     97.85% # Number of insts commited each cycle
system.cpu0.commit.committed_per_cycle::6      2388781      0.25%     98.10% # Number of insts commited each cycle
system.cpu0.commit.committed_per_cycle::7      2120234      0.22%     98.32% # Number of insts commited each cycle
system.cpu0.commit.committed_per_cycle::8     16072109      1.68%    100.00% # Number of insts commited each cycle
system.cpu0.commit.committed_per_cycle::overflows            0      0.00%    100.00% # Number of insts commited each cycle
system.cpu0.commit.committed_per_cycle::min_value            0                       # Number of insts commited each cycle
system.cpu0.commit.committed_per_cycle::max_value            8                       # Number of insts commited each cycle
system.cpu0.commit.committed_per_cycle::total    957034161                       # Number of insts commited each cycle
system.cpu0.commit.fp_insts                        50                       # Number of committed floating point instructions.
system.cpu0.commit.function_calls            11887280                       # Number of function calls committed.
system.cpu0.commit.int_insts                561298355                       # Number of committed integer instructions.
system.cpu0.commit.loads                    179951920                       # Number of loads committed
system.cpu0.commit.membars                    2037595                       # Number of memory barriers committed
system.cpu0.commit.op_class_0::No_OpClass      2037601      0.35%      0.35% # Class of committed instruction
system.cpu0.commit.op_class_0::IntAlu       322239032     55.43%     55.78% # Class of committed instruction
system.cpu0.commit.op_class_0::IntMult        4137068      0.71%     56.49% # Class of committed instruction
system.cpu0.commit.op_class_0::IntDiv         1017773      0.18%     56.67% # Class of committed instruction
system.cpu0.commit.op_class_0::FloatAdd             0      0.00%     56.67% # Class of committed instruction
system.cpu0.commit.op_class_0::FloatCmp             4      0.00%     56.67% # Class of committed instruction
system.cpu0.commit.op_class_0::FloatCvt            12      0.00%     56.67% # Class of committed instruction
system.cpu0.commit.op_class_0::FloatMult            0      0.00%     56.67% # Class of committed instruction
system.cpu0.commit.op_class_0::FloatMultAcc            0      0.00%     56.67% # Class of committed instruction
system.cpu0.commit.op_class_0::FloatDiv             2      0.00%     56.67% # Class of committed instruction
system.cpu0.commit.op_class_0::FloatMisc            4      0.00%     56.67% # Class of committed instruction
system.cpu0.commit.op_class_0::FloatSqrt            0      0.00%     56.67% # Class of committed instruction
system.cpu0.commit.op_class_0::SimdAdd              0      0.00%     56.67% # Class of committed instruction
system.cpu0.commit.op_class_0::SimdAddAcc            0      0.00%     56.67% # Class of committed instruction
system.cpu0.commit.op_class_0::SimdAlu              0      0.00%     56.67% # Class of committed instruction
system.cpu0.commit.op_class_0::SimdCmp              0      0.00%     56.67% # Class of committed instruction
system.cpu0.commit.op_class_0::SimdCvt              0      0.00%     56.67% # Class of committed instruction
system.cpu0.commit.op_class_0::SimdMisc             0      0.00%     56.67% # Class of committed instruction
system.cpu0.commit.op_class_0::SimdMult             0      0.00%     56.67% # Class of committed instruction
system.cpu0.commit.op_class_0::SimdMultAcc            0      0.00%     56.67% # Class of committed instruction
system.cpu0.commit.op_class_0::SimdShift            0      0.00%     56.67% # Class of committed instruction
system.cpu0.commit.op_class_0::SimdShiftAcc            0      0.00%     56.67% # Class of committed instruction
system.cpu0.commit.op_class_0::SimdDiv              0      0.00%     56.67% # Class of committed instruction
system.cpu0.commit.op_class_0::SimdSqrt             0      0.00%     56.67% # Class of committed instruction
system.cpu0.commit.op_class_0::SimdFloatAdd            0      0.00%     56.67% # Class of committed instruction
system.cpu0.commit.op_class_0::SimdFloatAlu            0      0.00%     56.67% # Class of committed instruction
system.cpu0.commit.op_class_0::SimdFloatCmp            0      0.00%     56.67% # Class of committed instruction
system.cpu0.commit.op_class_0::SimdFloatCvt            0      0.00%     56.67% # Class of committed instruction
system.cpu0.commit.op_class_0::SimdFloatDiv            0      0.00%     56.67% # Class of committed instruction
system.cpu0.commit.op_class_0::SimdFloatMisc            0      0.00%     56.67% # Class of committed instruction
system.cpu0.commit.op_class_0::SimdFloatMult            0      0.00%     56.67% # Class of committed instruction
system.cpu0.commit.op_class_0::SimdFloatMultAcc            0      0.00%     56.67% # Class of committed instruction
system.cpu0.commit.op_class_0::SimdFloatSqrt            0      0.00%     56.67% # Class of committed instruction
system.cpu0.commit.op_class_0::SimdReduceAdd            0      0.00%     56.67% # Class of committed instruction
system.cpu0.commit.op_class_0::SimdReduceAlu            0      0.00%     56.67% # Class of committed instruction
system.cpu0.commit.op_class_0::SimdReduceCmp            0      0.00%     56.67% # Class of committed instruction
system.cpu0.commit.op_class_0::SimdFloatReduceAdd            0      0.00%     56.67% # Class of committed instruction
system.cpu0.commit.op_class_0::SimdFloatReduceCmp            0      0.00%     56.67% # Class of committed instruction
system.cpu0.commit.op_class_0::SimdAes              0      0.00%     56.67% # Class of committed instruction
system.cpu0.commit.op_class_0::SimdAesMix            0      0.00%     56.67% # Class of committed instruction
system.cpu0.commit.op_class_0::SimdSha1Hash            0      0.00%     56.67% # Class of committed instruction
system.cpu0.commit.op_class_0::SimdSha1Hash2            0      0.00%     56.67% # Class of committed instruction
system.cpu0.commit.op_class_0::SimdSha256Hash            0      0.00%     56.67% # Class of committed instruction
system.cpu0.commit.op_class_0::SimdSha256Hash2            0      0.00%     56.67% # Class of committed instruction
system.cpu0.commit.op_class_0::SimdShaSigma2            0      0.00%     56.67% # Class of committed instruction
system.cpu0.commit.op_class_0::SimdShaSigma3            0      0.00%     56.67% # Class of committed instruction
system.cpu0.commit.op_class_0::SimdPredAlu            0      0.00%     56.67% # Class of committed instruction
system.cpu0.commit.op_class_0::MemRead      180970119     31.13%     87.80% # Class of committed instruction
system.cpu0.commit.op_class_0::MemWrite      70919152     12.20%    100.00% # Class of committed instruction
system.cpu0.commit.op_class_0::FloatMemRead            8      0.00%    100.00% # Class of committed instruction
system.cpu0.commit.op_class_0::FloatMemWrite           20      0.00%    100.00% # Class of committed instruction
system.cpu0.commit.op_class_0::IprAccess            0      0.00%    100.00% # Class of committed instruction
system.cpu0.commit.op_class_0::InstPrefetch            0      0.00%    100.00% # Class of committed instruction
system.cpu0.commit.op_class_0::total        581320795                       # Class of committed instruction
system.cpu0.commit.refs                     251889299                       # Number of memory references committed
system.cpu0.commit.swp_count                        0                       # Number of s/w prefetches committed
system.cpu0.commit.vec_insts                        0                       # Number of committed Vector instructions.
system.cpu0.committedInsts                  580301302                       # Number of Instructions Simulated
system.cpu0.committedOps                    581320795                       # Number of Ops (including micro ops) Simulated
system.cpu0.cpi                              1.789560                       # CPI: Cycles Per Instruction
system.cpu0.cpi_total                        1.789560                       # CPI: Total CPI of All Threads
system.cpu0.decode.BlockedCycles            180732693                       # Number of cycles decode is blocked
system.cpu0.decode.BranchMispred              2181946                       # Number of times decode detected a branch misprediction
system.cpu0.decode.BranchResolved            77161834                       # Number of times decode resolved a branch
system.cpu0.decode.DecodedInsts             630109725                       # Number of instructions handled by decode
system.cpu0.decode.IdleCycles               348891404                       # Number of cycles decode is idle
system.cpu0.decode.RunCycles                427304051                       # Number of cycles decode is running
system.cpu0.decode.SquashCycles               5014421                       # Number of cycles decode is squashing
system.cpu0.decode.SquashedInsts              7680847                       # Number of squashed instructions handled by decode
system.cpu0.decode.UnblockCycles              2968906                       # Number of cycles decode is unblocking
system.cpu0.dtb.accesses                            0                       # DTB accesses
system.cpu0.dtb.hits                                0                       # DTB hits
system.cpu0.dtb.misses                              0                       # DTB misses
system.cpu0.dtb.read_accesses                       0                       # DTB read accesses
system.cpu0.dtb.read_hits                           0                       # DTB read hits
system.cpu0.dtb.read_misses                         0                       # DTB read misses
system.cpu0.dtb.write_accesses                      0                       # DTB write accesses
system.cpu0.dtb.write_hits                          0                       # DTB write hits
system.cpu0.dtb.write_misses                        0                       # DTB write misses
system.cpu0.fetch.Branches                  156276747                       # Number of branches that fetch encountered
system.cpu0.fetch.CacheLines                102077737                       # Number of cache lines fetched
system.cpu0.fetch.Cycles                    616238595                       # Number of cycles fetch has run and was not squashing or blocked
system.cpu0.fetch.IcacheSquashes              2500065                       # Number of outstanding Icache misses that were squashed
system.cpu0.fetch.IcacheWaitRetryStallCycles           71                       # Number of stall cycles due to full MSHR
system.cpu0.fetch.Insts                     643926583                       # Number of instructions fetch has processed
system.cpu0.fetch.MiscStallCycles                  15                       # Number of cycles fetch has spent waiting on interrupts, or bad addresses, or out of MSHRs
system.cpu0.fetch.PendingTrapStallCycles           46                       # Number of stall cycles due to pending traps
system.cpu0.fetch.SquashCycles               14372944                       # Number of cycles fetch has spent squashing
system.cpu0.fetch.branchRate                 0.150485                       # Number of branch fetches per cycle
system.cpu0.fetch.icacheStallCycles         341486276                       # Number of cycles fetch is stalled on an Icache miss
system.cpu0.fetch.predictedBranches          88967445                       # Number of branches that fetch has predicted taken
system.cpu0.fetch.rate                       0.620064                       # Number of inst fetches per cycle
system.cpu0.fetch.rateDist::samples         964911475                       # Number of instructions fetched each cycle (Total)
system.cpu0.fetch.rateDist::mean             0.668400                       # Number of instructions fetched each cycle (Total)
system.cpu0.fetch.rateDist::stdev            0.925415                       # Number of instructions fetched each cycle (Total)
system.cpu0.fetch.rateDist::underflows              0      0.00%      0.00% # Number of instructions fetched each cycle (Total)
system.cpu0.fetch.rateDist::0               516667516     53.55%     53.55% # Number of instructions fetched each cycle (Total)
system.cpu0.fetch.rateDist::1               328841363     34.08%     87.63% # Number of instructions fetched each cycle (Total)
system.cpu0.fetch.rateDist::2                61775826      6.40%     94.03% # Number of instructions fetched each cycle (Total)
system.cpu0.fetch.rateDist::3                44223045      4.58%     98.61% # Number of instructions fetched each cycle (Total)
system.cpu0.fetch.rateDist::4                10366489      1.07%     99.69% # Number of instructions fetched each cycle (Total)
system.cpu0.fetch.rateDist::5                 1847249      0.19%     99.88% # Number of instructions fetched each cycle (Total)
system.cpu0.fetch.rateDist::6                  168732      0.02%     99.89% # Number of instructions fetched each cycle (Total)
system.cpu0.fetch.rateDist::7                     416      0.00%     99.89% # Number of instructions fetched each cycle (Total)
system.cpu0.fetch.rateDist::8                 1020839      0.11%    100.00% # Number of instructions fetched each cycle (Total)
system.cpu0.fetch.rateDist::overflows               0      0.00%    100.00% # Number of instructions fetched each cycle (Total)
system.cpu0.fetch.rateDist::min_value               0                       # Number of instructions fetched each cycle (Total)
system.cpu0.fetch.rateDist::max_value               8                       # Number of instructions fetched each cycle (Total)
system.cpu0.fetch.rateDist::total           964911475                       # Number of instructions fetched each cycle (Total)
system.cpu0.fp_regfile_reads                       44                       # number of floating regfile reads
system.cpu0.fp_regfile_writes                      23                       # number of floating regfile writes
system.cpu0.idleCycles                       73572621                       # Total number of cycles that the CPU has spent unscheduled due to idling
system.cpu0.iew.branchMispredicts             5130077                       # Number of branch mispredicts detected at execute
system.cpu0.iew.exec_branches               147641760                       # Number of branches executed
system.cpu0.iew.exec_nop                            0                       # number of nop insts executed
system.cpu0.iew.exec_rate                    0.587236                       # Inst execution rate
system.cpu0.iew.exec_refs                   268568689                       # number of memory reference insts executed
system.cpu0.iew.exec_stores                  74550190                       # Number of stores executed
system.cpu0.iew.exec_swp                            0                       # number of swp insts executed
system.cpu0.iew.iewBlockCycles              149744839                       # Number of cycles IEW is blocking
system.cpu0.iew.iewDispLoadInsts            194057410                       # Number of dispatched load instructions
system.cpu0.iew.iewDispNonSpecInsts           1021114                       # Number of dispatched non-speculative instructions
system.cpu0.iew.iewDispSquashedInsts          3087145                       # Number of squashed instructions skipped by dispatch
system.cpu0.iew.iewDispStoreInsts            75349003                       # Number of dispatched store instructions
system.cpu0.iew.iewDispatchedInsts          616513011                       # Number of instructions dispatched to IQ
system.cpu0.iew.iewExecLoadInsts            194018499                       # Number of load instructions executed
system.cpu0.iew.iewExecSquashedInsts          4646275                       # Number of squashed instructions skipped in execute
system.cpu0.iew.iewExecutedInsts            609835008                       # Number of executed instructions
system.cpu0.iew.iewIQFullEvents                913095                       # Number of times the IQ has become full, causing a stall
system.cpu0.iew.iewIdleCycles                       0                       # Number of cycles IEW is idle
system.cpu0.iew.iewLSQFullEvents              2656118                       # Number of times the LSQ has become full, causing a stall
system.cpu0.iew.iewSquashCycles               5014421                       # Number of cycles IEW is squashing
system.cpu0.iew.iewUnblockCycles              4679003                       # Number of cycles IEW is unblocking
system.cpu0.iew.lsq.thread0.blockedLoads            0                       # Number of blocked loads due to partial load-store forwarding
system.cpu0.iew.lsq.thread0.cacheBlocked        85924                       # Number of times an access to memory failed due to the cache being blocked
system.cpu0.iew.lsq.thread0.forwLoads         9142527                       # Number of loads that had data forwarded from stores
system.cpu0.iew.lsq.thread0.ignoredResponses        36359                       # Number of memory responses ignored because the instruction is squashed
system.cpu0.iew.lsq.thread0.invAddrLoads            0                       # Number of loads ignored due to an invalid address
system.cpu0.iew.lsq.thread0.invAddrSwpfs            0                       # Number of software prefetches ignored due to an invalid address
system.cpu0.iew.lsq.thread0.memOrderViolation         5101                       # Number of memory ordering violations
system.cpu0.iew.lsq.thread0.rescheduledLoads      2432112                       # Number of loads that were rescheduled
system.cpu0.iew.lsq.thread0.squashedLoads     14105490                       # Number of loads squashed
system.cpu0.iew.lsq.thread0.squashedStores      3411624                       # Number of stores squashed
system.cpu0.iew.memOrderViolationEvents          5101                       # Number of memory order violations
system.cpu0.iew.predictedNotTakenIncorrect       878787                       # Number of branches that were predicted not taken incorrectly
system.cpu0.iew.predictedTakenIncorrect       4251290                       # Number of branches that were predicted taken incorrectly
system.cpu0.iew.wb_consumers                275678865                       # num instructions consuming a value
system.cpu0.iew.wb_count                    603829026                       # cumulative count of insts written-back
system.cpu0.iew.wb_fanout                    0.838626                       # average fanout of values written-back
system.cpu0.iew.wb_producers                231191493                       # num instructions producing a value
system.cpu0.iew.wb_rate                      0.581452                       # insts written-back per cycle
system.cpu0.iew.wb_sent                     603888572                       # cumulative count of insts sent to commit
system.cpu0.int_regfile_reads               744114474                       # number of integer regfile reads
system.cpu0.int_regfile_writes              386205802                       # number of integer regfile writes
system.cpu0.ipc                              0.558797                       # IPC: Instructions Per Cycle
system.cpu0.ipc_total                        0.558797                       # IPC: Total IPC of All Threads
system.cpu0.iq.FU_type_0::No_OpClass          2038462      0.33%      0.33% # Type of FU issued
system.cpu0.iq.FU_type_0::IntAlu            336800002     54.81%     55.14% # Type of FU issued
system.cpu0.iq.FU_type_0::IntMult             4213031      0.69%     55.83% # Type of FU issued
system.cpu0.iq.FU_type_0::IntDiv              1018044      0.17%     55.99% # Type of FU issued
system.cpu0.iq.FU_type_0::FloatAdd                  0      0.00%     55.99% # Type of FU issued
system.cpu0.iq.FU_type_0::FloatCmp                  4      0.00%     55.99% # Type of FU issued
system.cpu0.iq.FU_type_0::FloatCvt                 12      0.00%     55.99% # Type of FU issued
system.cpu0.iq.FU_type_0::FloatMult                 0      0.00%     55.99% # Type of FU issued
system.cpu0.iq.FU_type_0::FloatMultAcc              0      0.00%     55.99% # Type of FU issued
system.cpu0.iq.FU_type_0::FloatDiv                  2      0.00%     55.99% # Type of FU issued
system.cpu0.iq.FU_type_0::FloatMisc                 4      0.00%     55.99% # Type of FU issued
system.cpu0.iq.FU_type_0::FloatSqrt                 0      0.00%     55.99% # Type of FU issued
system.cpu0.iq.FU_type_0::SimdAdd                   0      0.00%     55.99% # Type of FU issued
system.cpu0.iq.FU_type_0::SimdAddAcc                0      0.00%     55.99% # Type of FU issued
system.cpu0.iq.FU_type_0::SimdAlu                   0      0.00%     55.99% # Type of FU issued
system.cpu0.iq.FU_type_0::SimdCmp                   0      0.00%     55.99% # Type of FU issued
system.cpu0.iq.FU_type_0::SimdCvt                   0      0.00%     55.99% # Type of FU issued
system.cpu0.iq.FU_type_0::SimdMisc                  0      0.00%     55.99% # Type of FU issued
system.cpu0.iq.FU_type_0::SimdMult                  0      0.00%     55.99% # Type of FU issued
system.cpu0.iq.FU_type_0::SimdMultAcc               0      0.00%     55.99% # Type of FU issued
system.cpu0.iq.FU_type_0::SimdShift                 0      0.00%     55.99% # Type of FU issued
system.cpu0.iq.FU_type_0::SimdShiftAcc              0      0.00%     55.99% # Type of FU issued
system.cpu0.iq.FU_type_0::SimdDiv                   0      0.00%     55.99% # Type of FU issued
system.cpu0.iq.FU_type_0::SimdSqrt                  0      0.00%     55.99% # Type of FU issued
system.cpu0.iq.FU_type_0::SimdFloatAdd              0      0.00%     55.99% # Type of FU issued
system.cpu0.iq.FU_type_0::SimdFloatAlu              0      0.00%     55.99% # Type of FU issued
system.cpu0.iq.FU_type_0::SimdFloatCmp              0      0.00%     55.99% # Type of FU issued
system.cpu0.iq.FU_type_0::SimdFloatCvt              0      0.00%     55.99% # Type of FU issued
system.cpu0.iq.FU_type_0::SimdFloatDiv              0      0.00%     55.99% # Type of FU issued
system.cpu0.iq.FU_type_0::SimdFloatMisc             0      0.00%     55.99% # Type of FU issued
system.cpu0.iq.FU_type_0::SimdFloatMult             0      0.00%     55.99% # Type of FU issued
system.cpu0.iq.FU_type_0::SimdFloatMultAcc            0      0.00%     55.99% # Type of FU issued
system.cpu0.iq.FU_type_0::SimdFloatSqrt             0      0.00%     55.99% # Type of FU issued
system.cpu0.iq.FU_type_0::SimdReduceAdd             0      0.00%     55.99% # Type of FU issued
system.cpu0.iq.FU_type_0::SimdReduceAlu             0      0.00%     55.99% # Type of FU issued
system.cpu0.iq.FU_type_0::SimdReduceCmp             0      0.00%     55.99% # Type of FU issued
system.cpu0.iq.FU_type_0::SimdFloatReduceAdd            0      0.00%     55.99% # Type of FU issued
system.cpu0.iq.FU_type_0::SimdFloatReduceCmp            0      0.00%     55.99% # Type of FU issued
system.cpu0.iq.FU_type_0::SimdAes                   0      0.00%     55.99% # Type of FU issued
system.cpu0.iq.FU_type_0::SimdAesMix                0      0.00%     55.99% # Type of FU issued
system.cpu0.iq.FU_type_0::SimdSha1Hash              0      0.00%     55.99% # Type of FU issued
system.cpu0.iq.FU_type_0::SimdSha1Hash2             0      0.00%     55.99% # Type of FU issued
system.cpu0.iq.FU_type_0::SimdSha256Hash            0      0.00%     55.99% # Type of FU issued
system.cpu0.iq.FU_type_0::SimdSha256Hash2            0      0.00%     55.99% # Type of FU issued
system.cpu0.iq.FU_type_0::SimdShaSigma2             0      0.00%     55.99% # Type of FU issued
system.cpu0.iq.FU_type_0::SimdShaSigma3             0      0.00%     55.99% # Type of FU issued
system.cpu0.iq.FU_type_0::SimdPredAlu               0      0.00%     55.99% # Type of FU issued
system.cpu0.iq.FU_type_0::MemRead           196590101     31.99%     87.99% # Type of FU issued
system.cpu0.iq.FU_type_0::MemWrite           73821592     12.01%    100.00% # Type of FU issued
system.cpu0.iq.FU_type_0::FloatMemRead              9      0.00%    100.00% # Type of FU issued
system.cpu0.iq.FU_type_0::FloatMemWrite            20      0.00%    100.00% # Type of FU issued
system.cpu0.iq.FU_type_0::IprAccess                 0      0.00%    100.00% # Type of FU issued
system.cpu0.iq.FU_type_0::InstPrefetch              0      0.00%    100.00% # Type of FU issued
system.cpu0.iq.FU_type_0::total             614481283                       # Type of FU issued
system.cpu0.iq.fp_alu_accesses                     55                       # Number of floating point alu accesses
system.cpu0.iq.fp_inst_queue_reads                106                       # Number of floating instruction queue reads
system.cpu0.iq.fp_inst_queue_wakeup_accesses           51                       # Number of floating instruction queue wakeup accesses
system.cpu0.iq.fp_inst_queue_writes                52                       # Number of floating instruction queue writes
system.cpu0.iq.fu_busy_cnt                    1278139                       # FU busy when requested
system.cpu0.iq.fu_busy_rate                  0.002080                       # FU busy rate (busy events/executed inst)
system.cpu0.iq.fu_full::No_OpClass                  0      0.00%      0.00% # attempts to use FU when none available
system.cpu0.iq.fu_full::IntAlu                 210464     16.47%     16.47% # attempts to use FU when none available
system.cpu0.iq.fu_full::IntMult                     5      0.00%     16.47% # attempts to use FU when none available
system.cpu0.iq.fu_full::IntDiv                      0      0.00%     16.47% # attempts to use FU when none available
system.cpu0.iq.fu_full::FloatAdd                    0      0.00%     16.47% # attempts to use FU when none available
system.cpu0.iq.fu_full::FloatCmp                    0      0.00%     16.47% # attempts to use FU when none available
system.cpu0.iq.fu_full::FloatCvt                    0      0.00%     16.47% # attempts to use FU when none available
system.cpu0.iq.fu_full::FloatMult                   0      0.00%     16.47% # attempts to use FU when none available
system.cpu0.iq.fu_full::FloatMultAcc                0      0.00%     16.47% # attempts to use FU when none available
system.cpu0.iq.fu_full::FloatDiv                    0      0.00%     16.47% # attempts to use FU when none available
system.cpu0.iq.fu_full::FloatMisc                   0      0.00%     16.47% # attempts to use FU when none available
system.cpu0.iq.fu_full::FloatSqrt                   0      0.00%     16.47% # attempts to use FU when none available
system.cpu0.iq.fu_full::SimdAdd                     0      0.00%     16.47% # attempts to use FU when none available
system.cpu0.iq.fu_full::SimdAddAcc                  0      0.00%     16.47% # attempts to use FU when none available
system.cpu0.iq.fu_full::SimdAlu                     0      0.00%     16.47% # attempts to use FU when none available
system.cpu0.iq.fu_full::SimdCmp                     0      0.00%     16.47% # attempts to use FU when none available
system.cpu0.iq.fu_full::SimdCvt                     0      0.00%     16.47% # attempts to use FU when none available
system.cpu0.iq.fu_full::SimdMisc                    0      0.00%     16.47% # attempts to use FU when none available
system.cpu0.iq.fu_full::SimdMult                    0      0.00%     16.47% # attempts to use FU when none available
system.cpu0.iq.fu_full::SimdMultAcc                 0      0.00%     16.47% # attempts to use FU when none available
system.cpu0.iq.fu_full::SimdShift                   0      0.00%     16.47% # attempts to use FU when none available
system.cpu0.iq.fu_full::SimdShiftAcc                0      0.00%     16.47% # attempts to use FU when none available
system.cpu0.iq.fu_full::SimdDiv                     0      0.00%     16.47% # attempts to use FU when none available
system.cpu0.iq.fu_full::SimdSqrt                    0      0.00%     16.47% # attempts to use FU when none available
system.cpu0.iq.fu_full::SimdFloatAdd                0      0.00%     16.47% # attempts to use FU when none available
system.cpu0.iq.fu_full::SimdFloatAlu                0      0.00%     16.47% # attempts to use FU when none available
system.cpu0.iq.fu_full::SimdFloatCmp                0      0.00%     16.47% # attempts to use FU when none available
system.cpu0.iq.fu_full::SimdFloatCvt                0      0.00%     16.47% # attempts to use FU when none available
system.cpu0.iq.fu_full::SimdFloatDiv                0      0.00%     16.47% # attempts to use FU when none available
system.cpu0.iq.fu_full::SimdFloatMisc               0      0.00%     16.47% # attempts to use FU when none available
system.cpu0.iq.fu_full::SimdFloatMult               0      0.00%     16.47% # attempts to use FU when none available
system.cpu0.iq.fu_full::SimdFloatMultAcc            0      0.00%     16.47% # attempts to use FU when none available
system.cpu0.iq.fu_full::SimdFloatSqrt               0      0.00%     16.47% # attempts to use FU when none available
system.cpu0.iq.fu_full::SimdReduceAdd               0      0.00%     16.47% # attempts to use FU when none available
system.cpu0.iq.fu_full::SimdReduceAlu               0      0.00%     16.47% # attempts to use FU when none available
system.cpu0.iq.fu_full::SimdReduceCmp               0      0.00%     16.47% # attempts to use FU when none available
system.cpu0.iq.fu_full::SimdFloatReduceAdd            0      0.00%     16.47% # attempts to use FU when none available
system.cpu0.iq.fu_full::SimdFloatReduceCmp            0      0.00%     16.47% # attempts to use FU when none available
system.cpu0.iq.fu_full::SimdAes                     0      0.00%     16.47% # attempts to use FU when none available
system.cpu0.iq.fu_full::SimdAesMix                  0      0.00%     16.47% # attempts to use FU when none available
system.cpu0.iq.fu_full::SimdSha1Hash                0      0.00%     16.47% # attempts to use FU when none available
system.cpu0.iq.fu_full::SimdSha1Hash2               0      0.00%     16.47% # attempts to use FU when none available
system.cpu0.iq.fu_full::SimdSha256Hash              0      0.00%     16.47% # attempts to use FU when none available
system.cpu0.iq.fu_full::SimdSha256Hash2             0      0.00%     16.47% # attempts to use FU when none available
system.cpu0.iq.fu_full::SimdShaSigma2               0      0.00%     16.47% # attempts to use FU when none available
system.cpu0.iq.fu_full::SimdShaSigma3               0      0.00%     16.47% # attempts to use FU when none available
system.cpu0.iq.fu_full::SimdPredAlu                 0      0.00%     16.47% # attempts to use FU when none available
system.cpu0.iq.fu_full::MemRead                926240     72.47%     88.93% # attempts to use FU when none available
system.cpu0.iq.fu_full::MemWrite               141426     11.06%    100.00% # attempts to use FU when none available
system.cpu0.iq.fu_full::FloatMemRead                0      0.00%    100.00% # attempts to use FU when none available
system.cpu0.iq.fu_full::FloatMemWrite               4      0.00%    100.00% # attempts to use FU when none available
system.cpu0.iq.fu_full::IprAccess                   0      0.00%    100.00% # attempts to use FU when none available
system.cpu0.iq.fu_full::InstPrefetch                0      0.00%    100.00% # attempts to use FU when none available
system.cpu0.iq.int_alu_accesses             613720905                       # Number of integer alu accesses
system.cpu0.iq.int_inst_queue_reads        2195243717                       # Number of integer instruction queue reads
system.cpu0.iq.int_inst_queue_wakeup_accesses    603828975                       # Number of integer instruction queue wakeup accesses
system.cpu0.iq.int_inst_queue_writes        651709425                       # Number of integer instruction queue writes
system.cpu0.iq.iqInstsAdded                 613454132                       # Number of instructions added to the IQ (excludes non-spec)
system.cpu0.iq.iqInstsIssued                614481283                       # Number of instructions issued
system.cpu0.iq.iqNonSpecInstsAdded            3058879                       # Number of non-speculative instructions added to the IQ
system.cpu0.iq.iqSquashedInstsExamined       35192213                       # Number of squashed instructions iterated over during squash; mainly for profiling
system.cpu0.iq.iqSquashedInstsIssued            91643                       # Number of squashed instructions issued
system.cpu0.iq.iqSquashedNonSpecRemoved           368                       # Number of squashed non-spec instructions that were removed
system.cpu0.iq.iqSquashedOperandsExamined     12497868                       # Number of squashed operands that are examined and possibly removed from graph
system.cpu0.iq.issued_per_cycle::samples    964911475                       # Number of insts issued each cycle
system.cpu0.iq.issued_per_cycle::mean        0.636827                       # Number of insts issued each cycle
system.cpu0.iq.issued_per_cycle::stdev       0.858717                       # Number of insts issued each cycle
system.cpu0.iq.issued_per_cycle::underflows            0      0.00%      0.00% # Number of insts issued each cycle
system.cpu0.iq.issued_per_cycle::0          537318847     55.69%     55.69% # Number of insts issued each cycle
system.cpu0.iq.issued_per_cycle::1          287056940     29.75%     85.44% # Number of insts issued each cycle
system.cpu0.iq.issued_per_cycle::2          102071572     10.58%     96.01% # Number of insts issued each cycle
system.cpu0.iq.issued_per_cycle::3           32420111      3.36%     99.37% # Number of insts issued each cycle
system.cpu0.iq.issued_per_cycle::4            5054137      0.52%     99.90% # Number of insts issued each cycle
system.cpu0.iq.issued_per_cycle::5             399337      0.04%     99.94% # Number of insts issued each cycle
system.cpu0.iq.issued_per_cycle::6             409917      0.04%     99.98% # Number of insts issued each cycle
system.cpu0.iq.issued_per_cycle::7              96781      0.01%     99.99% # Number of insts issued each cycle
system.cpu0.iq.issued_per_cycle::8              83833      0.01%    100.00% # Number of insts issued each cycle
system.cpu0.iq.issued_per_cycle::overflows            0      0.00%    100.00% # Number of insts issued each cycle
system.cpu0.iq.issued_per_cycle::min_value            0                       # Number of insts issued each cycle
system.cpu0.iq.issued_per_cycle::max_value            8                       # Number of insts issued each cycle
system.cpu0.iq.issued_per_cycle::total      964911475                       # Number of insts issued each cycle
system.cpu0.iq.rate                          0.591710                       # Inst issue rate
system.cpu0.iq.vec_alu_accesses                     0                       # Number of vector alu accesses
system.cpu0.iq.vec_inst_queue_reads                 0                       # Number of vector instruction queue reads
system.cpu0.iq.vec_inst_queue_wakeup_accesses            0                       # Number of vector instruction queue wakeup accesses
system.cpu0.iq.vec_inst_queue_writes                0                       # Number of vector instruction queue writes
system.cpu0.itb.accesses                            0                       # DTB accesses
system.cpu0.itb.hits                                0                       # DTB hits
system.cpu0.itb.misses                              0                       # DTB misses
system.cpu0.itb.read_accesses                       0                       # DTB read accesses
system.cpu0.itb.read_hits                           0                       # DTB read hits
system.cpu0.itb.read_misses                         0                       # DTB read misses
system.cpu0.itb.write_accesses                      0                       # DTB write accesses
system.cpu0.itb.write_hits                          0                       # DTB write hits
system.cpu0.itb.write_misses                        0                       # DTB write misses
system.cpu0.memDep0.conflictingLoads          9938782                       # Number of conflicting loads.
system.cpu0.memDep0.conflictingStores         2446494                       # Number of conflicting stores.
system.cpu0.memDep0.insertedLoads           194057410                       # Number of loads inserted to the mem dependence unit.
system.cpu0.memDep0.insertedStores           75349003                       # Number of stores inserted to the mem dependence unit.
system.cpu0.misc_regfile_reads                    885                       # number of misc regfile reads
system.cpu0.misc_regfile_writes                    22                       # number of misc regfile writes
system.cpu0.numCycles                      1038484096                       # number of cpu cycles simulated
system.cpu0.numWorkItemsCompleted                   0                       # number of work items this cpu completed
system.cpu0.numWorkItemsStarted                     0                       # number of work items this cpu started
system.cpu0.quiesceCycles                    11240634                       # Total number of cycles that CPU has spent quiesced or waiting for an interrupt
system.cpu0.rename.BlockCycles              162026413                       # Number of cycles rename is blocking
system.cpu0.rename.CommittedMaps            370578879                       # Number of HB maps that are committed
system.cpu0.rename.IQFullEvents               6970039                       # Number of times rename has blocked due to IQ full
system.cpu0.rename.IdleCycles               354129150                       # Number of cycles rename is idle
system.cpu0.rename.LQFullEvents               4482137                       # Number of times rename has blocked due to LQ full
system.cpu0.rename.ROBFullEvents                10594                       # Number of times rename has blocked due to ROB full
system.cpu0.rename.RenameLookups            765761647                       # Number of register rename lookups that rename has made
system.cpu0.rename.RenamedInsts             626543895                       # Number of instructions processed by rename
system.cpu0.rename.RenamedOperands          402461616                       # Number of destination operands rename has renamed
system.cpu0.rename.RunCycles                424483354                       # Number of cycles rename is running
system.cpu0.rename.SQFullEvents               7620023                       # Number of times rename has blocked due to SQ full
system.cpu0.rename.SquashCycles               5014421                       # Number of cycles rename is squashing
system.cpu0.rename.UnblockCycles             19169510                       # Number of cycles rename is unblocking
system.cpu0.rename.UndoneMaps                31882733                       # Number of HB maps that are undone due to squashing
system.cpu0.rename.fp_rename_lookups               44                       # Number of floating rename lookups
system.cpu0.rename.int_rename_lookups       765761603                       # Number of integer rename lookups
system.cpu0.rename.serializeStallCycles         88627                       # count of cycles rename stalled for serializing inst
system.cpu0.rename.serializingInsts              2802                       # count of serializing insts renamed
system.cpu0.rename.skidInsts                 13811659                       # count of insts added to the skid buffer
system.cpu0.rename.tempSerializingInsts          2788                       # count of temporary serializing insts renamed
system.cpu0.rob.rob_reads                  1557484233                       # The number of ROB reads
system.cpu0.rob.rob_writes                 1240954019                       # The number of ROB writes
system.cpu0.timesIdled                       11146777                       # Number of times that the entire CPU went into an idle state and unscheduled itself
system.cpu0.workload.numSyscalls                  852                       # Number of system calls
system.cpu1.branchPred.BTBCorrect                   0                       # Number of correct BTB predictions (this stat may not work properly.
system.cpu1.branchPred.BTBHitPct            88.931803                       # BTB Hit Percentage
system.cpu1.branchPred.BTBHits                4420904                       # Number of BTB hits
system.cpu1.branchPred.BTBLookups             4971117                       # Number of BTB lookups
system.cpu1.branchPred.RASInCorrect                 0                       # Number of incorrect RAS predictions.
system.cpu1.branchPred.condIncorrect           785518                       # Number of conditional branches incorrect
system.cpu1.branchPred.condPredicted          7613965                       # Number of conditional branches predicted
system.cpu1.branchPred.indirectHits            252132                       # Number of indirect target hits.
system.cpu1.branchPred.indirectLookups         379841                       # Number of indirect predictor lookups.
system.cpu1.branchPred.indirectMisses          127709                       # Number of indirect misses.
system.cpu1.branchPred.lookups                8562169                       # Number of BP lookups
system.cpu1.branchPred.usedRAS                      0                       # Number of times the RAS was used to get a target.
system.cpu1.branchPredindirectMispredicted         3181                       # Number of mispredicted indirect branches.
system.cpu1.commit.amos                       1017929                       # Number of atomic instructions committed
system.cpu1.commit.branchMispredicts           467987                       # The number of times a branch was mispredicted
system.cpu1.commit.branches                   7095804                       # Number of branches committed
system.cpu1.commit.bw_lim_events               717493                       # number cycles where commit BW limit reached
system.cpu1.commit.commitNonSpecStalls        3054446                       # The number of times commit has been forced to stall to communicate backwards
system.cpu1.commit.commitSquashedInsts        3627209                       # The number of squashed insts skipped by commit
system.cpu1.commit.committedInsts            32264741                       # Number of instructions committed
system.cpu1.commit.committedOps              33282843                       # Number of ops (including micro ops) committed
system.cpu1.commit.committed_per_cycle::samples    192372420                       # Number of insts commited each cycle
system.cpu1.commit.committed_per_cycle::mean     0.173013                       # Number of insts commited each cycle
system.cpu1.commit.committed_per_cycle::stdev     0.814408                       # Number of insts commited each cycle
system.cpu1.commit.committed_per_cycle::underflows            0      0.00%      0.00% # Number of insts commited each cycle
system.cpu1.commit.committed_per_cycle::0    178277157     92.67%     92.67% # Number of insts commited each cycle
system.cpu1.commit.committed_per_cycle::1      7130241      3.71%     96.38% # Number of insts commited each cycle
system.cpu1.commit.committed_per_cycle::2      2449266      1.27%     97.65% # Number of insts commited each cycle
system.cpu1.commit.committed_per_cycle::3      2112591      1.10%     98.75% # Number of insts commited each cycle
system.cpu1.commit.committed_per_cycle::4       437289      0.23%     98.98% # Number of insts commited each cycle
system.cpu1.commit.committed_per_cycle::5       186577      0.10%     99.08% # Number of insts commited each cycle
system.cpu1.commit.committed_per_cycle::6       938330      0.49%     99.56% # Number of insts commited each cycle
system.cpu1.commit.committed_per_cycle::7       123476      0.06%     99.63% # Number of insts commited each cycle
system.cpu1.commit.committed_per_cycle::8       717493      0.37%    100.00% # Number of insts commited each cycle
system.cpu1.commit.committed_per_cycle::overflows            0      0.00%    100.00% # Number of insts commited each cycle
system.cpu1.commit.committed_per_cycle::min_value            0                       # Number of insts commited each cycle
system.cpu1.commit.committed_per_cycle::max_value            8                       # Number of insts commited each cycle
system.cpu1.commit.committed_per_cycle::total    192372420                       # Number of insts commited each cycle
system.cpu1.commit.fp_insts                        12                       # Number of committed floating point instructions.
system.cpu1.commit.function_calls              320858                       # Number of function calls committed.
system.cpu1.commit.int_insts                 31049619                       # Number of committed integer instructions.
system.cpu1.commit.loads                      9248948                       # Number of loads committed
system.cpu1.commit.membars                    2035970                       # Number of memory barriers committed
system.cpu1.commit.op_class_0::No_OpClass      2035970      6.12%      6.12% # Class of committed instruction
system.cpu1.commit.op_class_0::IntAlu        19083682     57.34%     63.46% # Class of committed instruction
system.cpu1.commit.op_class_0::IntMult             42      0.00%     63.46% # Class of committed instruction
system.cpu1.commit.op_class_0::IntDiv              84      0.00%     63.46% # Class of committed instruction
system.cpu1.commit.op_class_0::FloatAdd             0      0.00%     63.46% # Class of committed instruction
system.cpu1.commit.op_class_0::FloatCmp             0      0.00%     63.46% # Class of committed instruction
system.cpu1.commit.op_class_0::FloatCvt             0      0.00%     63.46% # Class of committed instruction
system.cpu1.commit.op_class_0::FloatMult            0      0.00%     63.46% # Class of committed instruction
system.cpu1.commit.op_class_0::FloatMultAcc            0      0.00%     63.46% # Class of committed instruction
system.cpu1.commit.op_class_0::FloatDiv             0      0.00%     63.46% # Class of committed instruction
system.cpu1.commit.op_class_0::FloatMisc            0      0.00%     63.46% # Class of committed instruction
system.cpu1.commit.op_class_0::FloatSqrt            0      0.00%     63.46% # Class of committed instruction
system.cpu1.commit.op_class_0::SimdAdd              0      0.00%     63.46% # Class of committed instruction
system.cpu1.commit.op_class_0::SimdAddAcc            0      0.00%     63.46% # Class of committed instruction
system.cpu1.commit.op_class_0::SimdAlu              0      0.00%     63.46% # Class of committed instruction
system.cpu1.commit.op_class_0::SimdCmp              0      0.00%     63.46% # Class of committed instruction
system.cpu1.commit.op_class_0::SimdCvt              0      0.00%     63.46% # Class of committed instruction
system.cpu1.commit.op_class_0::SimdMisc             0      0.00%     63.46% # Class of committed instruction
system.cpu1.commit.op_class_0::SimdMult             0      0.00%     63.46% # Class of committed instruction
system.cpu1.commit.op_class_0::SimdMultAcc            0      0.00%     63.46% # Class of committed instruction
system.cpu1.commit.op_class_0::SimdShift            0      0.00%     63.46% # Class of committed instruction
system.cpu1.commit.op_class_0::SimdShiftAcc            0      0.00%     63.46% # Class of committed instruction
system.cpu1.commit.op_class_0::SimdDiv              0      0.00%     63.46% # Class of committed instruction
system.cpu1.commit.op_class_0::SimdSqrt             0      0.00%     63.46% # Class of committed instruction
system.cpu1.commit.op_class_0::SimdFloatAdd            0      0.00%     63.46% # Class of committed instruction
system.cpu1.commit.op_class_0::SimdFloatAlu            0      0.00%     63.46% # Class of committed instruction
system.cpu1.commit.op_class_0::SimdFloatCmp            0      0.00%     63.46% # Class of committed instruction
system.cpu1.commit.op_class_0::SimdFloatCvt            0      0.00%     63.46% # Class of committed instruction
system.cpu1.commit.op_class_0::SimdFloatDiv            0      0.00%     63.46% # Class of committed instruction
system.cpu1.commit.op_class_0::SimdFloatMisc            0      0.00%     63.46% # Class of committed instruction
system.cpu1.commit.op_class_0::SimdFloatMult            0      0.00%     63.46% # Class of committed instruction
system.cpu1.commit.op_class_0::SimdFloatMultAcc            0      0.00%     63.46% # Class of committed instruction
system.cpu1.commit.op_class_0::SimdFloatSqrt            0      0.00%     63.46% # Class of committed instruction
system.cpu1.commit.op_class_0::SimdReduceAdd            0      0.00%     63.46% # Class of committed instruction
system.cpu1.commit.op_class_0::SimdReduceAlu            0      0.00%     63.46% # Class of committed instruction
system.cpu1.commit.op_class_0::SimdReduceCmp            0      0.00%     63.46% # Class of committed instruction
system.cpu1.commit.op_class_0::SimdFloatReduceAdd            0      0.00%     63.46% # Class of committed instruction
system.cpu1.commit.op_class_0::SimdFloatReduceCmp            0      0.00%     63.46% # Class of committed instruction
system.cpu1.commit.op_class_0::SimdAes              0      0.00%     63.46% # Class of committed instruction
system.cpu1.commit.op_class_0::SimdAesMix            0      0.00%     63.46% # Class of committed instruction
system.cpu1.commit.op_class_0::SimdSha1Hash            0      0.00%     63.46% # Class of committed instruction
system.cpu1.commit.op_class_0::SimdSha1Hash2            0      0.00%     63.46% # Class of committed instruction
system.cpu1.commit.op_class_0::SimdSha256Hash            0      0.00%     63.46% # Class of committed instruction
system.cpu1.commit.op_class_0::SimdSha256Hash2            0      0.00%     63.46% # Class of committed instruction
system.cpu1.commit.op_class_0::SimdShaSigma2            0      0.00%     63.46% # Class of committed instruction
system.cpu1.commit.op_class_0::SimdShaSigma3            0      0.00%     63.46% # Class of committed instruction
system.cpu1.commit.op_class_0::SimdPredAlu            0      0.00%     63.46% # Class of committed instruction
system.cpu1.commit.op_class_0::MemRead       10266877     30.85%     94.30% # Class of committed instruction
system.cpu1.commit.op_class_0::MemWrite       1896176      5.70%    100.00% # Class of committed instruction
system.cpu1.commit.op_class_0::FloatMemRead            0      0.00%    100.00% # Class of committed instruction
system.cpu1.commit.op_class_0::FloatMemWrite           12      0.00%    100.00% # Class of committed instruction
system.cpu1.commit.op_class_0::IprAccess            0      0.00%    100.00% # Class of committed instruction
system.cpu1.commit.op_class_0::InstPrefetch            0      0.00%    100.00% # Class of committed instruction
system.cpu1.commit.op_class_0::total         33282843                       # Class of committed instruction
system.cpu1.commit.refs                      12163065                       # Number of memory references committed
system.cpu1.commit.swp_count                        0                       # Number of s/w prefetches committed
system.cpu1.commit.vec_insts                        0                       # Number of committed Vector instructions.
system.cpu1.committedInsts                   32264741                       # Number of Instructions Simulated
system.cpu1.committedOps                     33282843                       # Number of Ops (including micro ops) Simulated
system.cpu1.cpi                              5.996001                       # CPI: Cycles Per Instruction
system.cpu1.cpi_total                        5.996001                       # CPI: Total CPI of All Threads
system.cpu1.decode.BlockedCycles            171533002                       # Number of cycles decode is blocked
system.cpu1.decode.BranchMispred               321023                       # Number of times decode detected a branch misprediction
system.cpu1.decode.BranchResolved             4250297                       # Number of times decode resolved a branch
system.cpu1.decode.DecodedInsts              39051121                       # Number of instructions handled by decode
system.cpu1.decode.IdleCycles                 6064964                       # Number of cycles decode is idle
system.cpu1.decode.RunCycles                 12959868                       # Number of cycles decode is running
system.cpu1.decode.SquashCycles                468203                       # Number of cycles decode is squashing
system.cpu1.decode.SquashedInsts               609085                       # Number of squashed instructions handled by decode
system.cpu1.decode.UnblockCycles              2112009                       # Number of cycles decode is unblocking
system.cpu1.dtb.accesses                            0                       # DTB accesses
system.cpu1.dtb.hits                                0                       # DTB hits
system.cpu1.dtb.misses                              0                       # DTB misses
system.cpu1.dtb.read_accesses                       0                       # DTB read accesses
system.cpu1.dtb.read_hits                           0                       # DTB read hits
system.cpu1.dtb.read_misses                         0                       # DTB read misses
system.cpu1.dtb.write_accesses                      0                       # DTB write accesses
system.cpu1.dtb.write_hits                          0                       # DTB write hits
system.cpu1.dtb.write_misses                        0                       # DTB write misses
system.cpu1.fetch.Branches                    8562169                       # Number of branches that fetch encountered
system.cpu1.fetch.CacheLines                  6248112                       # Number of cache lines fetched
system.cpu1.fetch.Cycles                    185736678                       # Number of cycles fetch has run and was not squashing or blocked
system.cpu1.fetch.IcacheSquashes               113507                       # Number of outstanding Icache misses that were squashed
system.cpu1.fetch.Insts                      39844144                       # Number of instructions fetch has processed
system.cpu1.fetch.MiscStallCycles                   1                       # Number of cycles fetch has spent waiting on interrupts, or bad addresses, or out of MSHRs
system.cpu1.fetch.SquashCycles                1571468                       # Number of cycles fetch has spent squashing
system.cpu1.fetch.branchRate                 0.044258                       # Number of branch fetches per cycle
system.cpu1.fetch.icacheStallCycles           6615633                       # Number of cycles fetch is stalled on an Icache miss
system.cpu1.fetch.predictedBranches           4673036                       # Number of branches that fetch has predicted taken
system.cpu1.fetch.rate                       0.205956                       # Number of inst fetches per cycle
system.cpu1.fetch.rateDist::samples         193138046                       # Number of instructions fetched each cycle (Total)
system.cpu1.fetch.rateDist::mean             0.211573                       # Number of instructions fetched each cycle (Total)
system.cpu1.fetch.rateDist::stdev            0.643195                       # Number of instructions fetched each cycle (Total)
system.cpu1.fetch.rateDist::underflows              0      0.00%      0.00% # Number of instructions fetched each cycle (Total)
system.cpu1.fetch.rateDist::0               168194968     87.09%     87.09% # Number of instructions fetched each cycle (Total)
system.cpu1.fetch.rateDist::1                14920396      7.73%     94.81% # Number of instructions fetched each cycle (Total)
system.cpu1.fetch.rateDist::2                 5622078      2.91%     97.72% # Number of instructions fetched each cycle (Total)
system.cpu1.fetch.rateDist::3                 3301257      1.71%     99.43% # Number of instructions fetched each cycle (Total)
system.cpu1.fetch.rateDist::4                  833579      0.43%     99.86% # Number of instructions fetched each cycle (Total)
system.cpu1.fetch.rateDist::5                  134948      0.07%     99.93% # Number of instructions fetched each cycle (Total)
system.cpu1.fetch.rateDist::6                  130597      0.07%    100.00% # Number of instructions fetched each cycle (Total)
system.cpu1.fetch.rateDist::7                      11      0.00%    100.00% # Number of instructions fetched each cycle (Total)
system.cpu1.fetch.rateDist::8                     212      0.00%    100.00% # Number of instructions fetched each cycle (Total)
system.cpu1.fetch.rateDist::overflows               0      0.00%    100.00% # Number of instructions fetched each cycle (Total)
system.cpu1.fetch.rateDist::min_value               0                       # Number of instructions fetched each cycle (Total)
system.cpu1.fetch.rateDist::max_value               8                       # Number of instructions fetched each cycle (Total)
system.cpu1.fetch.rateDist::total           193138046                       # Number of instructions fetched each cycle (Total)
system.cpu1.fp_regfile_reads                       12                       # number of floating regfile reads
system.cpu1.idleCycles                         321371                       # Total number of cycles that the CPU has spent unscheduled due to idling
system.cpu1.iew.branchMispredicts              490904                       # Number of branch mispredicts detected at execute
system.cpu1.iew.exec_branches                 7605862                       # Number of branches executed
system.cpu1.iew.exec_nop                            0                       # number of nop insts executed
system.cpu1.iew.exec_rate                    0.183663                       # Inst execution rate
system.cpu1.iew.exec_refs                    12855075                       # number of memory reference insts executed
system.cpu1.iew.exec_stores                   2945835                       # Number of stores executed
system.cpu1.iew.exec_swp                            0                       # number of swp insts executed
system.cpu1.iew.iewBlockCycles              148518523                       # Number of cycles IEW is blocking
system.cpu1.iew.iewDispLoadInsts              9974710                       # Number of dispatched load instructions
system.cpu1.iew.iewDispNonSpecInsts           1018630                       # Number of dispatched non-speculative instructions
system.cpu1.iew.iewDispSquashedInsts           772500                       # Number of squashed instructions skipped by dispatch
system.cpu1.iew.iewDispStoreInsts             2985015                       # Number of dispatched store instructions
system.cpu1.iew.iewDispatchedInsts           36904343                       # Number of instructions dispatched to IQ
system.cpu1.iew.iewExecLoadInsts              9909240                       # Number of load instructions executed
system.cpu1.iew.iewExecSquashedInsts           589585                       # Number of squashed instructions skipped in execute
system.cpu1.iew.iewExecutedInsts             35531365                       # Number of executed instructions
system.cpu1.iew.iewIQFullEvents                717704                       # Number of times the IQ has become full, causing a stall
system.cpu1.iew.iewIdleCycles                       0                       # Number of cycles IEW is idle
system.cpu1.iew.iewLSQFullEvents              1545964                       # Number of times the LSQ has become full, causing a stall
system.cpu1.iew.iewSquashCycles                468203                       # Number of cycles IEW is squashing
system.cpu1.iew.iewUnblockCycles              3458282                       # Number of cycles IEW is unblocking
system.cpu1.iew.lsq.thread0.blockedLoads            0                       # Number of blocked loads due to partial load-store forwarding
system.cpu1.iew.lsq.thread0.cacheBlocked        17566                       # Number of times an access to memory failed due to the cache being blocked
system.cpu1.iew.lsq.thread0.forwLoads          167804                       # Number of loads that had data forwarded from stores
system.cpu1.iew.lsq.thread0.ignoredResponses         5862                       # Number of memory responses ignored because the instruction is squashed
system.cpu1.iew.lsq.thread0.invAddrLoads            0                       # Number of loads ignored due to an invalid address
system.cpu1.iew.lsq.thread0.invAddrSwpfs            0                       # Number of software prefetches ignored due to an invalid address
system.cpu1.iew.lsq.thread0.memOrderViolation          164                       # Number of memory ordering violations
system.cpu1.iew.lsq.thread0.rescheduledLoads          431                       # Number of loads that were rescheduled
system.cpu1.iew.lsq.thread0.squashedLoads       725762                       # Number of loads squashed
system.cpu1.iew.lsq.thread0.squashedStores        70898                       # Number of stores squashed
system.cpu1.iew.memOrderViolationEvents           164                       # Number of memory order violations
system.cpu1.iew.predictedNotTakenIncorrect        88398                       # Number of branches that were predicted not taken incorrectly
system.cpu1.iew.predictedTakenIncorrect        402506                       # Number of branches that were predicted taken incorrectly
system.cpu1.iew.wb_consumers                 20664355                       # num instructions consuming a value
system.cpu1.iew.wb_count                     35289133                       # cumulative count of insts written-back
system.cpu1.iew.wb_fanout                    0.857141                       # average fanout of values written-back
system.cpu1.iew.wb_producers                 17712265                       # num instructions producing a value
system.cpu1.iew.wb_rate                      0.182411                       # insts written-back per cycle
system.cpu1.iew.wb_sent                      35297533                       # cumulative count of insts sent to commit
system.cpu1.int_regfile_reads                43745363                       # number of integer regfile reads
system.cpu1.int_regfile_writes               23918406                       # number of integer regfile writes
system.cpu1.ipc                              0.166778                       # IPC: Instructions Per Cycle
system.cpu1.ipc_total                        0.166778                       # IPC: Total IPC of All Threads
system.cpu1.iq.FU_type_0::No_OpClass          2036081      5.64%      5.64% # Type of FU issued
system.cpu1.iq.FU_type_0::IntAlu             21153101     58.56%     64.20% # Type of FU issued
system.cpu1.iq.FU_type_0::IntMult                  46      0.00%     64.20% # Type of FU issued
system.cpu1.iq.FU_type_0::IntDiv                   84      0.00%     64.20% # Type of FU issued
system.cpu1.iq.FU_type_0::FloatAdd                  0      0.00%     64.20% # Type of FU issued
system.cpu1.iq.FU_type_0::FloatCmp                  0      0.00%     64.20% # Type of FU issued
system.cpu1.iq.FU_type_0::FloatCvt                  0      0.00%     64.20% # Type of FU issued
system.cpu1.iq.FU_type_0::FloatMult                 0      0.00%     64.20% # Type of FU issued
system.cpu1.iq.FU_type_0::FloatMultAcc              0      0.00%     64.20% # Type of FU issued
system.cpu1.iq.FU_type_0::FloatDiv                  0      0.00%     64.20% # Type of FU issued
system.cpu1.iq.FU_type_0::FloatMisc                 0      0.00%     64.20% # Type of FU issued
system.cpu1.iq.FU_type_0::FloatSqrt                 0      0.00%     64.20% # Type of FU issued
system.cpu1.iq.FU_type_0::SimdAdd                   0      0.00%     64.20% # Type of FU issued
system.cpu1.iq.FU_type_0::SimdAddAcc                0      0.00%     64.20% # Type of FU issued
system.cpu1.iq.FU_type_0::SimdAlu                   0      0.00%     64.20% # Type of FU issued
system.cpu1.iq.FU_type_0::SimdCmp                   0      0.00%     64.20% # Type of FU issued
system.cpu1.iq.FU_type_0::SimdCvt                   0      0.00%     64.20% # Type of FU issued
system.cpu1.iq.FU_type_0::SimdMisc                  0      0.00%     64.20% # Type of FU issued
system.cpu1.iq.FU_type_0::SimdMult                  0      0.00%     64.20% # Type of FU issued
system.cpu1.iq.FU_type_0::SimdMultAcc               0      0.00%     64.20% # Type of FU issued
system.cpu1.iq.FU_type_0::SimdShift                 0      0.00%     64.20% # Type of FU issued
system.cpu1.iq.FU_type_0::SimdShiftAcc              0      0.00%     64.20% # Type of FU issued
system.cpu1.iq.FU_type_0::SimdDiv                   0      0.00%     64.20% # Type of FU issued
system.cpu1.iq.FU_type_0::SimdSqrt                  0      0.00%     64.20% # Type of FU issued
system.cpu1.iq.FU_type_0::SimdFloatAdd              0      0.00%     64.20% # Type of FU issued
system.cpu1.iq.FU_type_0::SimdFloatAlu              0      0.00%     64.20% # Type of FU issued
system.cpu1.iq.FU_type_0::SimdFloatCmp              0      0.00%     64.20% # Type of FU issued
system.cpu1.iq.FU_type_0::SimdFloatCvt              0      0.00%     64.20% # Type of FU issued
system.cpu1.iq.FU_type_0::SimdFloatDiv              0      0.00%     64.20% # Type of FU issued
system.cpu1.iq.FU_type_0::SimdFloatMisc             0      0.00%     64.20% # Type of FU issued
system.cpu1.iq.FU_type_0::SimdFloatMult             0      0.00%     64.20% # Type of FU issued
system.cpu1.iq.FU_type_0::SimdFloatMultAcc            0      0.00%     64.20% # Type of FU issued
system.cpu1.iq.FU_type_0::SimdFloatSqrt             0      0.00%     64.20% # Type of FU issued
system.cpu1.iq.FU_type_0::SimdReduceAdd             0      0.00%     64.20% # Type of FU issued
system.cpu1.iq.FU_type_0::SimdReduceAlu             0      0.00%     64.20% # Type of FU issued
system.cpu1.iq.FU_type_0::SimdReduceCmp             0      0.00%     64.20% # Type of FU issued
system.cpu1.iq.FU_type_0::SimdFloatReduceAdd            0      0.00%     64.20% # Type of FU issued
system.cpu1.iq.FU_type_0::SimdFloatReduceCmp            0      0.00%     64.20% # Type of FU issued
system.cpu1.iq.FU_type_0::SimdAes                   0      0.00%     64.20% # Type of FU issued
system.cpu1.iq.FU_type_0::SimdAesMix                0      0.00%     64.20% # Type of FU issued
system.cpu1.iq.FU_type_0::SimdSha1Hash              0      0.00%     64.20% # Type of FU issued
system.cpu1.iq.FU_type_0::SimdSha1Hash2             0      0.00%     64.20% # Type of FU issued
system.cpu1.iq.FU_type_0::SimdSha256Hash            0      0.00%     64.20% # Type of FU issued
system.cpu1.iq.FU_type_0::SimdSha256Hash2            0      0.00%     64.20% # Type of FU issued
system.cpu1.iq.FU_type_0::SimdShaSigma2             0      0.00%     64.20% # Type of FU issued
system.cpu1.iq.FU_type_0::SimdShaSigma3             0      0.00%     64.20% # Type of FU issued
system.cpu1.iq.FU_type_0::SimdPredAlu               0      0.00%     64.20% # Type of FU issued
system.cpu1.iq.FU_type_0::MemRead            10995453     30.44%     94.64% # Type of FU issued
system.cpu1.iq.FU_type_0::MemWrite            1936173      5.36%    100.00% # Type of FU issued
system.cpu1.iq.FU_type_0::FloatMemRead              0      0.00%    100.00% # Type of FU issued
system.cpu1.iq.FU_type_0::FloatMemWrite            12      0.00%    100.00% # Type of FU issued
system.cpu1.iq.FU_type_0::IprAccess                 0      0.00%    100.00% # Type of FU issued
system.cpu1.iq.FU_type_0::InstPrefetch              0      0.00%    100.00% # Type of FU issued
system.cpu1.iq.FU_type_0::total              36120950                       # Type of FU issued
system.cpu1.iq.fp_alu_accesses                     16                       # Number of floating point alu accesses
system.cpu1.iq.fp_inst_queue_reads                 28                       # Number of floating instruction queue reads
system.cpu1.iq.fp_inst_queue_wakeup_accesses           12                       # Number of floating instruction queue wakeup accesses
system.cpu1.iq.fp_inst_queue_writes                12                       # Number of floating instruction queue writes
system.cpu1.iq.fu_busy_cnt                    1067531                       # FU busy when requested
system.cpu1.iq.fu_busy_rate                  0.029554                       # FU busy rate (busy events/executed inst)
system.cpu1.iq.fu_full::No_OpClass                  0      0.00%      0.00% # attempts to use FU when none available
system.cpu1.iq.fu_full::IntAlu                 170732     15.99%     15.99% # attempts to use FU when none available
system.cpu1.iq.fu_full::IntMult                     0      0.00%     15.99% # attempts to use FU when none available
system.cpu1.iq.fu_full::IntDiv                      0      0.00%     15.99% # attempts to use FU when none available
system.cpu1.iq.fu_full::FloatAdd                    0      0.00%     15.99% # attempts to use FU when none available
system.cpu1.iq.fu_full::FloatCmp                    0      0.00%     15.99% # attempts to use FU when none available
system.cpu1.iq.fu_full::FloatCvt                    0      0.00%     15.99% # attempts to use FU when none available
system.cpu1.iq.fu_full::FloatMult                   0      0.00%     15.99% # attempts to use FU when none available
system.cpu1.iq.fu_full::FloatMultAcc                0      0.00%     15.99% # attempts to use FU when none available
system.cpu1.iq.fu_full::FloatDiv                    0      0.00%     15.99% # attempts to use FU when none available
system.cpu1.iq.fu_full::FloatMisc                   0      0.00%     15.99% # attempts to use FU when none available
system.cpu1.iq.fu_full::FloatSqrt                   0      0.00%     15.99% # attempts to use FU when none available
system.cpu1.iq.fu_full::SimdAdd                     0      0.00%     15.99% # attempts to use FU when none available
system.cpu1.iq.fu_full::SimdAddAcc                  0      0.00%     15.99% # attempts to use FU when none available
system.cpu1.iq.fu_full::SimdAlu                     0      0.00%     15.99% # attempts to use FU when none available
system.cpu1.iq.fu_full::SimdCmp                     0      0.00%     15.99% # attempts to use FU when none available
system.cpu1.iq.fu_full::SimdCvt                     0      0.00%     15.99% # attempts to use FU when none available
system.cpu1.iq.fu_full::SimdMisc                    0      0.00%     15.99% # attempts to use FU when none available
system.cpu1.iq.fu_full::SimdMult                    0      0.00%     15.99% # attempts to use FU when none available
system.cpu1.iq.fu_full::SimdMultAcc                 0      0.00%     15.99% # attempts to use FU when none available
system.cpu1.iq.fu_full::SimdShift                   0      0.00%     15.99% # attempts to use FU when none available
system.cpu1.iq.fu_full::SimdShiftAcc                0      0.00%     15.99% # attempts to use FU when none available
system.cpu1.iq.fu_full::SimdDiv                     0      0.00%     15.99% # attempts to use FU when none available
system.cpu1.iq.fu_full::SimdSqrt                    0      0.00%     15.99% # attempts to use FU when none available
system.cpu1.iq.fu_full::SimdFloatAdd                0      0.00%     15.99% # attempts to use FU when none available
system.cpu1.iq.fu_full::SimdFloatAlu                0      0.00%     15.99% # attempts to use FU when none available
system.cpu1.iq.fu_full::SimdFloatCmp                0      0.00%     15.99% # attempts to use FU when none available
system.cpu1.iq.fu_full::SimdFloatCvt                0      0.00%     15.99% # attempts to use FU when none available
system.cpu1.iq.fu_full::SimdFloatDiv                0      0.00%     15.99% # attempts to use FU when none available
system.cpu1.iq.fu_full::SimdFloatMisc               0      0.00%     15.99% # attempts to use FU when none available
system.cpu1.iq.fu_full::SimdFloatMult               0      0.00%     15.99% # attempts to use FU when none available
system.cpu1.iq.fu_full::SimdFloatMultAcc            0      0.00%     15.99% # attempts to use FU when none available
system.cpu1.iq.fu_full::SimdFloatSqrt               0      0.00%     15.99% # attempts to use FU when none available
system.cpu1.iq.fu_full::SimdReduceAdd               0      0.00%     15.99% # attempts to use FU when none available
system.cpu1.iq.fu_full::SimdReduceAlu               0      0.00%     15.99% # attempts to use FU when none available
system.cpu1.iq.fu_full::SimdReduceCmp               0      0.00%     15.99% # attempts to use FU when none available
system.cpu1.iq.fu_full::SimdFloatReduceAdd            0      0.00%     15.99% # attempts to use FU when none available
system.cpu1.iq.fu_full::SimdFloatReduceCmp            0      0.00%     15.99% # attempts to use FU when none available
system.cpu1.iq.fu_full::SimdAes                     0      0.00%     15.99% # attempts to use FU when none available
system.cpu1.iq.fu_full::SimdAesMix                  0      0.00%     15.99% # attempts to use FU when none available
system.cpu1.iq.fu_full::SimdSha1Hash                0      0.00%     15.99% # attempts to use FU when none available
system.cpu1.iq.fu_full::SimdSha1Hash2               0      0.00%     15.99% # attempts to use FU when none available
system.cpu1.iq.fu_full::SimdSha256Hash              0      0.00%     15.99% # attempts to use FU when none available
system.cpu1.iq.fu_full::SimdSha256Hash2             0      0.00%     15.99% # attempts to use FU when none available
system.cpu1.iq.fu_full::SimdShaSigma2               0      0.00%     15.99% # attempts to use FU when none available
system.cpu1.iq.fu_full::SimdShaSigma3               0      0.00%     15.99% # attempts to use FU when none available
system.cpu1.iq.fu_full::SimdPredAlu                 0      0.00%     15.99% # attempts to use FU when none available
system.cpu1.iq.fu_full::MemRead                806824     75.58%     91.57% # attempts to use FU when none available
system.cpu1.iq.fu_full::MemWrite                89971      8.43%    100.00% # attempts to use FU when none available
[...]
system.cpu1.dcache.WriteReq_hits::.cpu1.data      1028515                       # number of WriteReq hits
system.cpu1.dcache.WriteReq_hits::total       1028515                       # number of WriteReq hits
system.cpu1.dcache.WriteReq_misses::.cpu1.data       348445                       # number of WriteReq misses
system.cpu1.dcache.WriteReq_misses::total       348445                       # number of WriteReq misses
system.cpu1.dcache.WriteReq_miss_latency::.cpu1.data  22694109658                       # number of WriteReq miss cycles
system.cpu1.dcache.WriteReq_miss_latency::total  22694109658                       # number of WriteReq miss cycles
system.cpu1.dcache.WriteReq_accesses::.cpu1.data      1376960                       # number of WriteReq accesses(hits+misses)
system.cpu1.dcache.WriteReq_accesses::total      1376960                       # number of WriteReq accesses(hits+misses)
system.cpu1.dcache.WriteReq_miss_rate::.cpu1.data     0.253054                       # miss rate for WriteReq accesses
system.cpu1.dcache.WriteReq_miss_rate::total     0.253054                       # miss rate for WriteReq accesses
system.cpu1.dcache.WriteReq_avg_miss_latency::.cpu1.data 65129.675151                       # average WriteReq miss latency
system.cpu1.dcache.WriteReq_avg_miss_latency::total 65129.675151                       # average WriteReq miss latency
system.cpu1.dcache.WriteReq_mshr_hits::.cpu1.data       282163                       # number of WriteReq MSHR hits
system.cpu1.dcache.WriteReq_mshr_hits::total       282163                       # number of WriteReq MSHR hits
system.cpu1.dcache.WriteReq_mshr_misses::.cpu1.data        66282                       # number of WriteReq MSHR misses
system.cpu1.dcache.WriteReq_mshr_misses::total        66282                       # number of WriteReq MSHR misses
system.cpu1.dcache.WriteReq_mshr_miss_latency::.cpu1.data   4356680338                       # number of WriteReq MSHR miss cycles
system.cpu1.dcache.WriteReq_mshr_miss_latency::total   4356680338                       # number of WriteReq MSHR miss cycles
system.cpu1.dcache.WriteReq_mshr_miss_rate::.cpu1.data     0.048136                       # mshr miss rate for WriteReq accesses
system.cpu1.dcache.WriteReq_mshr_miss_rate::total     0.048136                       # mshr miss rate for WriteReq accesses
system.cpu1.dcache.WriteReq_avg_mshr_miss_latency::.cpu1.data 65729.464078                       # average WriteReq mshr miss latency
system.cpu1.dcache.WriteReq_avg_mshr_miss_latency::total 65729.464078                       # average WriteReq mshr miss latency
system.cpu1.dcache.LoadLockedReq_hits::.cpu1.data        47456                       # number of LoadLockedReq hits
system.cpu1.dcache.LoadLockedReq_hits::total        47456                       # number of LoadLockedReq hits
system.cpu1.dcache.LoadLockedReq_misses::.cpu1.data          947                       # number of LoadLockedReq misses
system.cpu1.dcache.LoadLockedReq_misses::total          947                       # number of LoadLockedReq misses
system.cpu1.dcache.LoadLockedReq_miss_latency::.cpu1.data     37681000                       # number of LoadLockedReq miss cycles
system.cpu1.dcache.LoadLockedReq_miss_latency::total     37681000                       # number of LoadLockedReq miss cycles
system.cpu1.dcache.LoadLockedReq_accesses::.cpu1.data        48403                       # number of LoadLockedReq accesses(hits+misses)
system.cpu1.dcache.LoadLockedReq_accesses::total        48403                       # number of LoadLockedReq accesses(hits+misses)
system.cpu1.dcache.LoadLockedReq_miss_rate::.cpu1.data     0.019565                       # miss rate for LoadLockedReq accesses
system.cpu1.dcache.LoadLockedReq_miss_rate::total     0.019565                       # miss rate for LoadLockedReq accesses
system.cpu1.dcache.LoadLockedReq_avg_miss_latency::.cpu1.data 39789.862724                       # average LoadLockedReq miss latency
system.cpu1.dcache.LoadLockedReq_avg_miss_latency::total 39789.862724                       # average LoadLockedReq miss latency
system.cpu1.dcache.LoadLockedReq_mshr_hits::.cpu1.data          242                       # number of LoadLockedReq MSHR hits
system.cpu1.dcache.LoadLockedReq_mshr_hits::total          242                       # number of LoadLockedReq MSHR hits
system.cpu1.dcache.LoadLockedReq_mshr_misses::.cpu1.data          705                       # number of LoadLockedReq MSHR misses
system.cpu1.dcache.LoadLockedReq_mshr_misses::total          705                       # number of LoadLockedReq MSHR misses
system.cpu1.dcache.LoadLockedReq_mshr_miss_latency::.cpu1.data     22401000                       # number of LoadLockedReq MSHR miss cycles
system.cpu1.dcache.LoadLockedReq_mshr_miss_latency::total     22401000                       # number of LoadLockedReq MSHR miss cycles
system.cpu1.dcache.LoadLockedReq_mshr_miss_rate::.cpu1.data     0.014565                       # mshr miss rate for LoadLockedReq accesses
system.cpu1.dcache.LoadLockedReq_mshr_miss_rate::total     0.014565                       # mshr miss rate for LoadLockedReq accesses
system.cpu1.dcache.LoadLockedReq_avg_mshr_miss_latency::.cpu1.data 31774.468085                       # average LoadLockedReq mshr miss latency
system.cpu1.dcache.LoadLockedReq_avg_mshr_miss_latency::total 31774.468085                       # average LoadLockedReq mshr miss latency
system.cpu1.dcache.StoreCondReq_hits::.cpu1.data        42823                       # number of StoreCondReq hits
system.cpu1.dcache.StoreCondReq_hits::total        42823                       # number of StoreCondReq hits
system.cpu1.dcache.StoreCondReq_misses::.cpu1.data         5248                       # number of StoreCondReq misses
system.cpu1.dcache.StoreCondReq_misses::total         5248                       # number of StoreCondReq misses
system.cpu1.dcache.StoreCondReq_miss_latency::.cpu1.data     32907000                       # number of StoreCondReq miss cycles
system.cpu1.dcache.StoreCondReq_miss_latency::total     32907000                       # number of StoreCondReq miss cycles
system.cpu1.dcache.StoreCondReq_accesses::.cpu1.data        48071                       # number of StoreCondReq accesses(hits+misses)
system.cpu1.dcache.StoreCondReq_accesses::total        48071                       # number of StoreCondReq accesses(hits+misses)
system.cpu1.dcache.StoreCondReq_miss_rate::.cpu1.data     0.109172                       # miss rate for StoreCondReq accesses
system.cpu1.dcache.StoreCondReq_miss_rate::total     0.109172                       # miss rate for StoreCondReq accesses
system.cpu1.dcache.StoreCondReq_avg_miss_latency::.cpu1.data  6270.388720                       # average StoreCondReq miss latency
system.cpu1.dcache.StoreCondReq_avg_miss_latency::total  6270.388720                       # average StoreCondReq miss latency
system.cpu1.dcache.StoreCondReq_mshr_misses::.cpu1.data         5132                       # number of StoreCondReq MSHR misses
system.cpu1.dcache.StoreCondReq_mshr_misses::total         5132                       # number of StoreCondReq MSHR misses
system.cpu1.dcache.StoreCondReq_mshr_miss_latency::.cpu1.data     27808000                       # number of StoreCondReq MSHR miss cycles
system.cpu1.dcache.StoreCondReq_mshr_miss_latency::total     27808000                       # number of StoreCondReq MSHR miss cycles
system.cpu1.dcache.StoreCondReq_mshr_miss_rate::.cpu1.data     0.106759                       # mshr miss rate for StoreCondReq accesses
system.cpu1.dcache.StoreCondReq_mshr_miss_rate::total     0.106759                       # mshr miss rate for StoreCondReq accesses
system.cpu1.dcache.StoreCondReq_avg_mshr_miss_latency::.cpu1.data  5418.550273                       # average StoreCondReq mshr miss latency
system.cpu1.dcache.StoreCondReq_avg_mshr_miss_latency::total  5418.550273                       # average StoreCondReq mshr miss latency
system.cpu1.dcache.StoreCondFailReq_miss_latency::.cpu1.data       705500                       # number of StoreCondFailReq miss cycles
system.cpu1.dcache.StoreCondFailReq_miss_latency::total       705500                       # number of StoreCondFailReq miss cycles
system.cpu1.dcache.StoreCondFailReq_avg_miss_latency::.cpu1.data          inf                       # average StoreCondFailReq miss latency
system.cpu1.dcache.StoreCondFailReq_avg_miss_latency::total          inf                       # average StoreCondFailReq miss latency
system.cpu1.dcache.StoreCondFailReq_mshr_miss_latency::.cpu1.data       672500                       # number of StoreCondFailReq MSHR miss cycles
system.cpu1.dcache.StoreCondFailReq_mshr_miss_latency::total       672500                       # number of StoreCondFailReq MSHR miss cycles
system.cpu1.dcache.StoreCondFailReq_avg_mshr_miss_latency::.cpu1.data          inf                       # average StoreCondFailReq mshr miss latency
system.cpu1.dcache.StoreCondFailReq_avg_mshr_miss_latency::total          inf                       # average StoreCondFailReq mshr miss latency
system.cpu1.dcache.SwapReq_hits::.cpu1.data         1626                       # number of SwapReq hits
system.cpu1.dcache.SwapReq_hits::total           1626                       # number of SwapReq hits
system.cpu1.dcache.SwapReq_misses::.cpu1.data         2806                       # number of SwapReq misses
system.cpu1.dcache.SwapReq_misses::total         2806                       # number of SwapReq misses
system.cpu1.dcache.SwapReq_miss_latency::.cpu1.data    133774500                       # number of SwapReq miss cycles
system.cpu1.dcache.SwapReq_miss_latency::total    133774500                       # number of SwapReq miss cycles
system.cpu1.dcache.SwapReq_accesses::.cpu1.data         4432                       # number of SwapReq accesses(hits+misses)
system.cpu1.dcache.SwapReq_accesses::total         4432                       # number of SwapReq accesses(hits+misses)
system.cpu1.dcache.SwapReq_miss_rate::.cpu1.data     0.633123                       # miss rate for SwapReq accesses
system.cpu1.dcache.SwapReq_miss_rate::total     0.633123                       # miss rate for SwapReq accesses
system.cpu1.dcache.SwapReq_avg_miss_latency::.cpu1.data 47674.447612                       # average SwapReq miss latency
system.cpu1.dcache.SwapReq_avg_miss_latency::total 47674.447612                       # average SwapReq miss latency
system.cpu1.dcache.SwapReq_mshr_misses::.cpu1.data         2806                       # number of SwapReq MSHR misses
system.cpu1.dcache.SwapReq_mshr_misses::total         2806                       # number of SwapReq MSHR misses
system.cpu1.dcache.SwapReq_mshr_miss_latency::.cpu1.data    130968500                       # number of SwapReq MSHR miss cycles
system.cpu1.dcache.SwapReq_mshr_miss_latency::total    130968500                       # number of SwapReq MSHR miss cycles
system.cpu1.dcache.SwapReq_mshr_miss_rate::.cpu1.data     0.633123                       # mshr miss rate for SwapReq accesses
system.cpu1.dcache.SwapReq_mshr_miss_rate::total     0.633123                       # mshr miss rate for SwapReq accesses
system.cpu1.dcache.SwapReq_avg_mshr_miss_latency::.cpu1.data 46674.447612                       # average SwapReq mshr miss latency
system.cpu1.dcache.SwapReq_avg_mshr_miss_latency::total 46674.447612                       # average SwapReq mshr miss latency
system.cpu1.dcache.tags.pwrStateResidencyTicks::UNDEFINED  70200044500                       # Cumulative time (in ticks) in various power states
system.cpu1.dcache.tags.tagsinuse           31.387615                       # Cycle average of tags in use
system.cpu1.dcache.tags.total_refs           18397675                       # Total number of references to valid blocks.
system.cpu1.dcache.tags.sampled_refs          1242045                       # Sample count of references to valid blocks.
system.cpu1.dcache.tags.avg_refs            14.812406                       # Average number of references to valid blocks.
system.cpu1.dcache.tags.warmup_cycle                0                       # Cycle when the warmup percentage was hit.
system.cpu1.dcache.tags.occ_blocks::.cpu1.data    31.387615                       # Average occupied blocks per requestor
system.cpu1.dcache.tags.occ_percent::.cpu1.data     0.980863                       # Average percentage of cache occupancy
system.cpu1.dcache.tags.occ_percent::total     0.980863                       # Average percentage of cache occupancy
system.cpu1.dcache.tags.occ_task_id_blocks::1024           28                       # Occupied blocks per task id
system.cpu1.dcache.tags.age_task_id_blocks_1024::1           28                       # Occupied blocks per task id
system.cpu1.dcache.tags.occ_task_id_percent::1024     0.875000                       # Percentage of cache occupancy per task id
system.cpu1.dcache.tags.tag_accesses         46887414                       # Number of tag accesses
system.cpu1.dcache.tags.data_accesses        46887414                       # Number of data accesses
system.cpu_clk_domain.clock                       500                       # Clock period in ticks
system.tol2bus.pwrStateResidencyTicks::UNDEFINED  70200044500                       # Cumulative time (in ticks) in various power states
system.tol2bus.trans_dist::ReadResp           2572855                       # Transaction distribution
system.tol2bus.trans_dist::WritebackDirty       815541                       # Transaction distribution
system.tol2bus.trans_dist::WritebackClean      2225557                       # Transaction distribution
system.tol2bus.trans_dist::CleanEvict         5162777                       # Transaction distribution
system.tol2bus.trans_dist::HardPFReq          3267451                       # Transaction distribution
system.tol2bus.trans_dist::HardPFResp               1                       # Transaction distribution
system.tol2bus.trans_dist::UpgradeReq           25020                       # Transaction distribution
system.tol2bus.trans_dist::SCUpgradeReq         10666                       # Transaction distribution
system.tol2bus.trans_dist::UpgradeResp          35686                       # Transaction distribution
system.tol2bus.trans_dist::SCUpgradeFailReq           64                       # Transaction distribution
system.tol2bus.trans_dist::UpgradeFailResp           64                       # Transaction distribution
system.tol2bus.trans_dist::ReadExReq           139646                       # Transaction distribution
system.tol2bus.trans_dist::ReadExResp          139646                       # Transaction distribution
system.tol2bus.trans_dist::ReadCleanReq        131157                       # Transaction distribution
system.tol2bus.trans_dist::ReadSharedReq      2441697                       # Transaction distribution
system.tol2bus.trans_dist::InvalidateReq          516                       # Transaction distribution
system.tol2bus.trans_dist::InvalidateResp          516                       # Transaction distribution
system.tol2bus.pkt_count_system.cpu0.icache.mem_side::system.l2.cpu_side       325716                       # Packet count per connected master and slave (bytes)
system.tol2bus.pkt_count_system.cpu0.dcache.mem_side::system.l2.cpu_side      3997522                       # Packet count per connected master and slave (bytes)
system.tol2bus.pkt_count_system.cpu1.icache.mem_side::system.l2.cpu_side        67749                       # Packet count per connected master and slave (bytes)
system.tol2bus.pkt_count_system.cpu1.dcache.mem_side::system.l2.cpu_side      3702863                       # Packet count per connected master and slave (bytes)
system.tol2bus.pkt_count::total               8093850                       # Packet count per connected master and slave (bytes)
system.tol2bus.pkt_size_system.cpu0.icache.mem_side::system.l2.cpu_side     13897088                       # Cumulative packet size per connected master and slave (bytes)
system.tol2bus.pkt_size_system.cpu0.dcache.mem_side::system.l2.cpu_side    168708672                       # Cumulative packet size per connected master and slave (bytes)
system.tol2bus.pkt_size_system.cpu1.icache.mem_side::system.l2.cpu_side      2890624                       # Cumulative packet size per connected master and slave (bytes)
system.tol2bus.pkt_size_system.cpu1.dcache.mem_side::system.l2.cpu_side    156184256                       # Cumulative packet size per connected master and slave (bytes)
system.tol2bus.pkt_size::total              341680640                       # Cumulative packet size per connected master and slave (bytes)
system.tol2bus.snoops                         8875011                       # Total snoops (count)
system.tol2bus.snoopTraffic                  26553920                       # Total snoop traffic (bytes)
system.tol2bus.snoop_fanout::samples         11550124                       # Request fanout histogram
system.tol2bus.snoop_fanout::mean            0.205142                       # Request fanout histogram
system.tol2bus.snoop_fanout::stdev           0.426091                       # Request fanout histogram
system.tol2bus.snoop_fanout::underflows             0      0.00%      0.00% # Request fanout histogram
system.tol2bus.snoop_fanout::0                9287493     80.41%     80.41% # Request fanout histogram
system.tol2bus.snoop_fanout::1                2155860     18.67%     99.08% # Request fanout histogram
system.tol2bus.snoop_fanout::2                 106752      0.92%    100.00% # Request fanout histogram
system.tol2bus.snoop_fanout::3                     19      0.00%    100.00% # Request fanout histogram
system.tol2bus.snoop_fanout::4                      0      0.00%    100.00% # Request fanout histogram
system.tol2bus.snoop_fanout::5                      0      0.00%    100.00% # Request fanout histogram
system.tol2bus.snoop_fanout::6                      0      0.00%    100.00% # Request fanout histogram
system.tol2bus.snoop_fanout::7                      0      0.00%    100.00% # Request fanout histogram
system.tol2bus.snoop_fanout::8                      0      0.00%    100.00% # Request fanout histogram
system.tol2bus.snoop_fanout::overflows              0      0.00%    100.00% # Request fanout histogram
system.tol2bus.snoop_fanout::min_value              0                       # Request fanout histogram
system.tol2bus.snoop_fanout::max_value              3                       # Request fanout histogram
system.tol2bus.snoop_fanout::total           11550124                       # Request fanout histogram
system.tol2bus.reqLayer0.occupancy         5380374026                       # Layer occupancy (ticks)
system.tol2bus.reqLayer0.utilization              7.7                       # Layer utilization (%)
system.tol2bus.respLayer1.occupancy        2021207210                       # Layer occupancy (ticks)
system.tol2bus.respLayer1.utilization             2.9                       # Layer utilization (%)
system.tol2bus.respLayer0.occupancy         162976272                       # Layer occupancy (ticks)
system.tol2bus.respLayer0.utilization             0.2                       # Layer utilization (%)
system.tol2bus.respLayer3.occupancy        1874650640                       # Layer occupancy (ticks)
system.tol2bus.respLayer3.utilization             2.7                       # Layer utilization (%)
system.tol2bus.respLayer2.occupancy          34068611                       # Layer occupancy (ticks)
system.tol2bus.respLayer2.utilization             0.0                       # Layer utilization (%)
system.tol2bus.snoopLayer0.occupancy             1501                       # Layer occupancy (ticks)
system.tol2bus.snoopLayer0.utilization            0.0                       # Layer utilization (%)

---------- End Simulation Statistics   ----------
