
---------- Begin Simulation Statistics ----------
final_tick                               1938453305500                       # Number of ticks from beginning of simulation (restored from checkpoints and never reset)
host_inst_rate                                 101252                       # Simulator instruction rate (inst/s)
host_mem_usage                                 702220                       # Number of bytes of host memory used
host_op_rate                                   101579                       # Simulator op (including micro ops) rate (op/s)
host_seconds                                 23257.82                       # Real time elapsed on the host
host_tick_rate                               83346308                       # Simulator tick rate (ticks/s)
sim_freq                                 1000000000000                       # Frequency of simulated ticks
sim_insts                                  2354889247                       # Number of instructions simulated
sim_ops                                    2362498151                       # Number of ops (including micro ops) simulated
sim_seconds                                  1.938453                       # Number of seconds simulated
sim_ticks                                1938453305500                       # Number of ticks simulated
system.cpu0.branchPred.BTBCorrect                   0                       # Number of correct BTB predictions (this stat may not work properly.
system.cpu0.branchPred.BTBHitPct            87.815584                       # BTB Hit Percentage
system.cpu0.branchPred.BTBHits              296745960                       # Number of BTB hits
system.cpu0.branchPred.BTBLookups           337919474                       # Number of BTB lookups
system.cpu0.branchPred.RASInCorrect                 0                       # Number of incorrect RAS predictions.
system.cpu0.branchPred.condIncorrect         26628421                       # Number of conditional branches incorrect
system.cpu0.branchPred.condPredicted        462331212                       # Number of conditional branches predicted
system.cpu0.branchPred.indirectHits          40107272                       # Number of indirect target hits.
system.cpu0.branchPred.indirectLookups       40646043                       # Number of indirect predictor lookups.
system.cpu0.branchPred.indirectMisses          538771                       # Number of indirect misses.
system.cpu0.branchPred.lookups              588429157                       # Number of BP lookups
system.cpu0.branchPred.usedRAS                      0                       # Number of times the RAS was used to get a target.
system.cpu0.branchPredindirectMispredicted      3958838                       # Number of mispredicted indirect branches.
system.cpu0.commit.amos                       3801861                       # Number of atomic instructions committed
system.cpu0.commit.branchMispredicts         17297089                       # The number of times a branch was mispredicted
system.cpu0.commit.branches                 555030130                       # Number of branches committed
system.cpu0.commit.bw_lim_events             59640347                       # number cycles where commit BW limit reached
system.cpu0.commit.commitNonSpecStalls       11419475                       # The number of times commit has been forced to stall to communicate backwards
system.cpu0.commit.commitSquashedInsts       95291950                       # The number of squashed insts skipped by commit
system.cpu0.commit.committedInsts          2224813311                       # Number of instructions committed
system.cpu0.commit.committedOps            2228620459                       # Number of ops (including micro ops) committed
system.cpu0.commit.committed_per_cycle::samples   3588521699                       # Number of insts commited each cycle
system.cpu0.commit.committed_per_cycle::mean     0.621041                       # Number of insts commited each cycle
system.cpu0.commit.committed_per_cycle::stdev     1.379217                       # Number of insts commited each cycle
system.cpu0.commit.committed_per_cycle::underflows            0      0.00%      0.00% # Number of insts commited each cycle
system.cpu0.commit.committed_per_cycle::0   2515271645     70.09%     70.09% # Number of insts commited each cycle
system.cpu0.commit.committed_per_cycle::1    635781044     17.72%     87.81% # Number of insts commited each cycle
system.cpu0.commit.committed_per_cycle::2    152191601      4.24%     92.05% # Number of insts commited each cycle
system.cpu0.commit.committed_per_cycle::3    147594869      4.11%     96.16% # Number of insts commited each cycle
system.cpu0.commit.committed_per_cycle::4     45904714      1.28%     97.44% # Number of insts commited each cycle
system.cpu0.commit.committed_per_cycle::5     15808045      0.44%     97.88% # Number of insts commited each cycle
system.cpu0.commit.committed_per_cycle::6      8416289      0.23%     98.12% # Number of insts commited each cycle
system.cpu0.commit.committed_per_cycle::7      7913145      0.22%     98.34% # Number of insts commited each cycle
system.cpu0.commit.committed_per_cycle::8     59640347      1.66%    100.00% # Number of insts commited each cycle
system.cpu0.commit.committed_per_cycle::overflows            0      0.00%    100.00% # Number of insts commited each cycle
system.cpu0.commit.committed_per_cycle::min_value            0                       # Number of insts commited each cycle
system.cpu0.commit.committed_per_cycle::max_value            8                       # Number of insts commited each cycle
system.cpu0.commit.committed_per_cycle::total   3588521699                       # Number of insts commited each cycle
system.cpu0.commit.fp_insts                        50                       # Number of committed floating point instructions.
system.cpu0.commit.function_calls            44162682                       # Number of function calls committed.
system.cpu0.commit.int_insts               2150925596                       # Number of committed integer instructions.
system.cpu0.commit.loads                    691554517                       # Number of loads committed
system.cpu0.commit.membars                    7608880                       # Number of memory barriers committed
system.cpu0.commit.op_class_0::No_OpClass      7608886      0.34%      0.34% # Class of committed instruction
system.cpu0.commit.op_class_0::IntAlu      1238764264     55.58%     55.93% # Class of committed instruction
system.cpu0.commit.op_class_0::IntMult       18318071      0.82%     56.75% # Class of committed instruction
system.cpu0.commit.op_class_0::IntDiv         3801411      0.17%     56.92% # Class of committed instruction
system.cpu0.commit.op_class_0::FloatAdd             0      0.00%     56.92% # Class of committed instruction
system.cpu0.commit.op_class_0::FloatCmp             4      0.00%     56.92% # Class of committed instruction
system.cpu0.commit.op_class_0::FloatCvt            12      0.00%     56.92% # Class of committed instruction
system.cpu0.commit.op_class_0::FloatMult            0      0.00%     56.92% # Class of committed instruction
system.cpu0.commit.op_class_0::FloatMultAcc            0      0.00%     56.92% # Class of committed instruction
system.cpu0.commit.op_class_0::FloatDiv             2      0.00%     56.92% # Class of committed instruction
system.cpu0.commit.op_class_0::FloatMisc            4      0.00%     56.92% # Class of committed instruction
system.cpu0.commit.op_class_0::FloatSqrt            0      0.00%     56.92% # Class of committed instruction
system.cpu0.commit.op_class_0::SimdAdd              0      0.00%     56.92% # Class of committed instruction
system.cpu0.commit.op_class_0::SimdAddAcc            0      0.00%     56.92% # Class of committed instruction
system.cpu0.commit.op_class_0::SimdAlu              0      0.00%     56.92% # Class of committed instruction
system.cpu0.commit.op_class_0::SimdCmp              0      0.00%     56.92% # Class of committed instruction
system.cpu0.commit.op_class_0::SimdCvt              0      0.00%     56.92% # Class of committed instruction
system.cpu0.commit.op_class_0::SimdMisc             0      0.00%     56.92% # Class of committed instruction
system.cpu0.commit.op_class_0::SimdMult             0      0.00%     56.92% # Class of committed instruction
system.cpu0.commit.op_class_0::SimdMultAcc            0      0.00%     56.92% # Class of committed instruction
system.cpu0.commit.op_class_0::SimdShift            0      0.00%     56.92% # Class of committed instruction
system.cpu0.commit.op_class_0::SimdShiftAcc            0      0.00%     56.92% # Class of committed instruction
system.cpu0.commit.op_class_0::SimdDiv              0      0.00%     56.92% # Class of committed instruction
system.cpu0.commit.op_class_0::SimdSqrt             0      0.00%     56.92% # Class of committed instruction
system.cpu0.commit.op_class_0::SimdFloatAdd            0      0.00%     56.92% # Class of committed instruction
system.cpu0.commit.op_class_0::SimdFloatAlu            0      0.00%     56.92% # Class of committed instruction
system.cpu0.commit.op_class_0::SimdFloatCmp            0      0.00%     56.92% # Class of committed instruction
system.cpu0.commit.op_class_0::SimdFloatCvt            0      0.00%     56.92% # Class of committed instruction
system.cpu0.commit.op_class_0::SimdFloatDiv            0      0.00%     56.92% # Class of committed instruction
system.cpu0.commit.op_class_0::SimdFloatMisc            0      0.00%     56.92% # Class of committed instruction
system.cpu0.commit.op_class_0::SimdFloatMult            0      0.00%     56.92% # Class of committed instruction
system.cpu0.commit.op_class_0::SimdFloatMultAcc            0      0.00%     56.92% # Class of committed instruction
system.cpu0.commit.op_class_0::SimdFloatSqrt            0      0.00%     56.92% # Class of committed instruction
system.cpu0.commit.op_class_0::SimdReduceAdd            0      0.00%     56.92% # Class of committed instruction
system.cpu0.commit.op_class_0::SimdReduceAlu            0      0.00%     56.92% # Class of committed instruction
system.cpu0.commit.op_class_0::SimdReduceCmp            0      0.00%     56.92% # Class of committed instruction
system.cpu0.commit.op_class_0::SimdFloatReduceAdd            0      0.00%     56.92% # Class of committed instruction
system.cpu0.commit.op_class_0::SimdFloatReduceCmp            0      0.00%     56.92% # Class of committed instruction
system.cpu0.commit.op_class_0::SimdAes              0      0.00%     56.92% # Class of committed instruction
system.cpu0.commit.op_class_0::SimdAesMix            0      0.00%     56.92% # Class of committed instruction
system.cpu0.commit.op_class_0::SimdSha1Hash            0      0.00%     56.92% # Class of committed instruction
system.cpu0.commit.op_class_0::SimdSha1Hash2            0      0.00%     56.92% # Class of committed instruction
system.cpu0.commit.op_class_0::SimdSha256Hash            0      0.00%     56.92% # Class of committed instruction
system.cpu0.commit.op_class_0::SimdSha256Hash2            0      0.00%     56.92% # Class of committed instruction
system.cpu0.commit.op_class_0::SimdShaSigma2            0      0.00%     56.92% # Class of committed instruction
system.cpu0.commit.op_class_0::SimdShaSigma3            0      0.00%     56.92% # Class of committed instruction
system.cpu0.commit.op_class_0::SimdPredAlu            0      0.00%     56.92% # Class of committed instruction
system.cpu0.commit.op_class_0::MemRead      695356370     31.20%     88.12% # Class of committed instruction
system.cpu0.commit.op_class_0::MemWrite     264771407     11.88%    100.00% # Class of committed instruction
system.cpu0.commit.op_class_0::FloatMemRead            8      0.00%    100.00% # Class of committed instruction
system.cpu0.commit.op_class_0::FloatMemWrite           20      0.00%    100.00% # Class of committed instruction
system.cpu0.commit.op_class_0::IprAccess            0      0.00%    100.00% # Class of committed instruction
system.cpu0.commit.op_class_0::InstPrefetch            0      0.00%    100.00% # Class of committed instruction
system.cpu0.commit.op_class_0::total       2228620459                       # Class of committed instruction
system.cpu0.commit.refs                     960127805                       # Number of memory references committed
system.cpu0.commit.swp_count                        0                       # Number of s/w prefetches committed
system.cpu0.commit.vec_insts                        0                       # Number of committed Vector instructions.
system.cpu0.committedInsts                 2224813311                       # Number of Instructions Simulated
system.cpu0.committedOps                   2228620459                       # Number of Ops (including micro ops) Simulated
system.cpu0.cpi                              1.739874                       # CPI: Cycles Per Instruction
system.cpu0.cpi_total                        1.739874                       # CPI: Total CPI of All Threads
system.cpu0.decode.BlockedCycles            645471337                       # Number of cycles decode is blocked
system.cpu0.decode.BranchMispred              9344603                       # Number of times decode detected a branch misprediction
system.cpu0.decode.BranchResolved           293819672                       # Number of times decode resolved a branch
system.cpu0.decode.DecodedInsts            2361743844                       # Number of instructions handled by decode
system.cpu0.decode.IdleCycles              1324364590                       # Number of cycles decode is idle
system.cpu0.decode.RunCycles               1616101218                       # Number of cycles decode is running
system.cpu0.decode.SquashCycles              17312765                       # Number of cycles decode is squashing
system.cpu0.decode.SquashedInsts             23692298                       # Number of squashed instructions handled by decode
system.cpu0.decode.UnblockCycles             10551691                       # Number of cycles decode is unblocking
system.cpu0.dtb.accesses                            0                       # DTB accesses
system.cpu0.dtb.hits                                0                       # DTB hits
system.cpu0.dtb.misses                              0                       # DTB misses
system.cpu0.dtb.read_accesses                       0                       # DTB read accesses
system.cpu0.dtb.read_hits                           0                       # DTB read hits
system.cpu0.dtb.read_misses                         0                       # DTB read misses
system.cpu0.dtb.write_accesses                      0                       # DTB write accesses
system.cpu0.dtb.write_hits                          0                       # DTB write hits
system.cpu0.dtb.write_misses                        0                       # DTB write misses
system.cpu0.fetch.Branches                  588429157                       # Number of branches that fetch encountered
system.cpu0.fetch.CacheLines                400730537                       # Number of cache lines fetched
system.cpu0.fetch.Cycles                   2292824879                       # Number of cycles fetch has run and was not squashing or blocked
system.cpu0.fetch.IcacheSquashes             10772398                       # Number of outstanding Icache misses that were squashed
system.cpu0.fetch.IcacheWaitRetryStallCycles          153                       # Number of stall cycles due to full MSHR
system.cpu0.fetch.Insts                    2403358285                       # Number of instructions fetch has processed
system.cpu0.fetch.MiscStallCycles                  62                       # Number of cycles fetch has spent waiting on interrupts, or bad addresses, or out of MSHRs
system.cpu0.fetch.PendingTrapStallCycles          171                       # Number of stall cycles due to pending traps
system.cpu0.fetch.SquashCycles               53288248                       # Number of cycles fetch has spent squashing
system.cpu0.fetch.branchRate                 0.152014                       # Number of branch fetches per cycle
system.cpu0.fetch.icacheStallCycles        1294332212                       # Number of cycles fetch is stalled on an Icache miss
system.cpu0.fetch.predictedBranches         336853232                       # Number of branches that fetch has predicted taken
system.cpu0.fetch.rate                       0.620879                       # Number of inst fetches per cycle
system.cpu0.fetch.rateDist::samples        3613801601                       # Number of instructions fetched each cycle (Total)
system.cpu0.fetch.rateDist::mean             0.666103                       # Number of instructions fetched each cycle (Total)
system.cpu0.fetch.rateDist::stdev            0.917177                       # Number of instructions fetched each cycle (Total)
system.cpu0.fetch.rateDist::underflows              0      0.00%      0.00% # Number of instructions fetched each cycle (Total)
system.cpu0.fetch.rateDist::0              1929948895     53.40%     53.40% # Number of instructions fetched each cycle (Total)
system.cpu0.fetch.rateDist::1              1240350965     34.32%     87.73% # Number of instructions fetched each cycle (Total)
system.cpu0.fetch.rateDist::2               231214490      6.40%     94.13% # Number of instructions fetched each cycle (Total)
system.cpu0.fetch.rateDist::3               168281937      4.66%     98.78% # Number of instructions fetched each cycle (Total)
system.cpu0.fetch.rateDist::4                33017808      0.91%     99.70% # Number of instructions fetched each cycle (Total)
system.cpu0.fetch.rateDist::5                 6069309      0.17%     99.86% # Number of instructions fetched each cycle (Total)
system.cpu0.fetch.rateDist::6                 1111421      0.03%     99.89% # Number of instructions fetched each cycle (Total)
system.cpu0.fetch.rateDist::7                     423      0.00%     99.89% # Number of instructions fetched each cycle (Total)
system.cpu0.fetch.rateDist::8                 3806353      0.11%    100.00% # Number of instructions fetched each cycle (Total)
system.cpu0.fetch.rateDist::overflows               0      0.00%    100.00% # Number of instructions fetched each cycle (Total)
system.cpu0.fetch.rateDist::min_value               0                       # Number of instructions fetched each cycle (Total)
system.cpu0.fetch.rateDist::max_value               8                       # Number of instructions fetched each cycle (Total)
system.cpu0.fetch.rateDist::total          3613801601                       # Number of instructions fetched each cycle (Total)
system.cpu0.fp_regfile_reads                       44                       # number of floating regfile reads
system.cpu0.fp_regfile_writes                      24                       # number of floating regfile writes
system.cpu0.idleCycles                      257093095                       # Total number of cycles that the CPU has spent unscheduled due to idling
system.cpu0.iew.branchMispredicts            17515029                       # Number of branch mispredicts detected at execute
system.cpu0.iew.exec_branches               566861672                       # Number of branches executed
system.cpu0.iew.exec_nop                            0                       # number of nop insts executed
system.cpu0.iew.exec_rate                    0.597089                       # Inst execution rate
system.cpu0.iew.exec_refs                  1010399057                       # number of memory reference insts executed
system.cpu0.iew.exec_stores                 278337053                       # Number of stores executed
system.cpu0.iew.exec_swp                            0                       # number of swp insts executed
system.cpu0.iew.iewBlockCycles              547074621                       # Number of cycles IEW is blocking
system.cpu0.iew.iewDispLoadInsts            729552121                       # Number of dispatched load instructions
system.cpu0.iew.iewDispNonSpecInsts           3810810                       # Number of dispatched non-speculative instructions
system.cpu0.iew.iewDispSquashedInsts          9701139                       # Number of squashed instructions skipped by dispatch
system.cpu0.iew.iewDispStoreInsts           280321659                       # Number of dispatched store instructions
system.cpu0.iew.iewDispatchedInsts         2323875187                       # Number of instructions dispatched to IQ
system.cpu0.iew.iewExecLoadInsts            732062004                       # Number of load instructions executed
system.cpu0.iew.iewExecSquashedInsts         10135066                       # Number of squashed instructions skipped in execute
system.cpu0.iew.iewExecutedInsts           2311267286                       # Number of executed instructions
system.cpu0.iew.iewIQFullEvents               3876102                       # Number of times the IQ has become full, causing a stall
system.cpu0.iew.iewIdleCycles                       0                       # Number of cycles IEW is idle
system.cpu0.iew.iewLSQFullEvents              6268312                       # Number of times the LSQ has become full, causing a stall
system.cpu0.iew.iewSquashCycles              17312765                       # Number of cycles IEW is squashing
system.cpu0.iew.iewUnblockCycles             14300803                       # Number of cycles IEW is unblocking
system.cpu0.iew.lsq.thread0.blockedLoads            0                       # Number of blocked loads due to partial load-store forwarding
system.cpu0.iew.lsq.thread0.cacheBlocked       201028                       # Number of times an access to memory failed due to the cache being blocked
system.cpu0.iew.lsq.thread0.forwLoads        36644728                       # Number of loads that had data forwarded from stores
system.cpu0.iew.lsq.thread0.ignoredResponses       166055                       # Number of memory responses ignored because the instruction is squashed
system.cpu0.iew.lsq.thread0.invAddrLoads            0                       # Number of loads ignored due to an invalid address
system.cpu0.iew.lsq.thread0.invAddrSwpfs            0                       # Number of software prefetches ignored due to an invalid address
system.cpu0.iew.lsq.thread0.memOrderViolation        15539                       # Number of memory ordering violations
system.cpu0.iew.lsq.thread0.rescheduledLoads      9011789                       # Number of loads that were rescheduled
system.cpu0.iew.lsq.thread0.squashedLoads     37997604                       # Number of loads squashed
system.cpu0.iew.lsq.thread0.squashedStores     11748371                       # Number of stores squashed
system.cpu0.iew.memOrderViolationEvents         15539                       # Number of memory order violations
system.cpu0.iew.predictedNotTakenIncorrect      1981349                       # Number of branches that were predicted not taken incorrectly
system.cpu0.iew.predictedTakenIncorrect      15533680                       # Number of branches that were predicted taken incorrectly
system.cpu0.iew.wb_consumers               1039519091                       # num instructions consuming a value
system.cpu0.iew.wb_count                   2295139584                       # cumulative count of insts written-back
system.cpu0.iew.wb_fanout                    0.841974                       # average fanout of values written-back
system.cpu0.iew.wb_producers                875248214                       # num instructions producing a value
system.cpu0.iew.wb_rate                      0.592922                       # insts written-back per cycle
system.cpu0.iew.wb_sent                    2295287997                       # cumulative count of insts sent to commit
system.cpu0.int_regfile_reads              2826942737                       # number of integer regfile reads
system.cpu0.int_regfile_writes             1466698934                       # number of integer regfile writes
system.cpu0.ipc                              0.574754                       # IPC: Instructions Per Cycle
system.cpu0.ipc_total                        0.574754                       # IPC: Total IPC of All Threads
system.cpu0.iq.FU_type_0::No_OpClass          7611775      0.33%      0.33% # Type of FU issued
system.cpu0.iq.FU_type_0::IntAlu           1277056329     55.01%     55.34% # Type of FU issued
system.cpu0.iq.FU_type_0::IntMult            18650339      0.80%     56.14% # Type of FU issued
system.cpu0.iq.FU_type_0::IntDiv              3802447      0.16%     56.31% # Type of FU issued
system.cpu0.iq.FU_type_0::FloatAdd                  0      0.00%     56.31% # Type of FU issued
system.cpu0.iq.FU_type_0::FloatCmp                  4      0.00%     56.31% # Type of FU issued
system.cpu0.iq.FU_type_0::FloatCvt                 12      0.00%     56.31% # Type of FU issued
system.cpu0.iq.FU_type_0::FloatMult                 0      0.00%     56.31% # Type of FU issued
system.cpu0.iq.FU_type_0::FloatMultAcc              0      0.00%     56.31% # Type of FU issued
system.cpu0.iq.FU_type_0::FloatDiv                  2      0.00%     56.31% # Type of FU issued
system.cpu0.iq.FU_type_0::FloatMisc                 4      0.00%     56.31% # Type of FU issued
system.cpu0.iq.FU_type_0::FloatSqrt                 0      0.00%     56.31% # Type of FU issued
system.cpu0.iq.FU_type_0::SimdAdd                   0      0.00%     56.31% # Type of FU issued
system.cpu0.iq.FU_type_0::SimdAddAcc                0      0.00%     56.31% # Type of FU issued
system.cpu0.iq.FU_type_0::SimdAlu                   0      0.00%     56.31% # Type of FU issued
system.cpu0.iq.FU_type_0::SimdCmp                   0      0.00%     56.31% # Type of FU issued
system.cpu0.iq.FU_type_0::SimdCvt                   0      0.00%     56.31% # Type of FU issued
system.cpu0.iq.FU_type_0::SimdMisc                  0      0.00%     56.31% # Type of FU issued
system.cpu0.iq.FU_type_0::SimdMult                  0      0.00%     56.31% # Type of FU issued
system.cpu0.iq.FU_type_0::SimdMultAcc               0      0.00%     56.31% # Type of FU issued
system.cpu0.iq.FU_type_0::SimdShift                 0      0.00%     56.31% # Type of FU issued
system.cpu0.iq.FU_type_0::SimdShiftAcc              0      0.00%     56.31% # Type of FU issued
system.cpu0.iq.FU_type_0::SimdDiv                   0      0.00%     56.31% # Type of FU issued
system.cpu0.iq.FU_type_0::SimdSqrt                  0      0.00%     56.31% # Type of FU issued
system.cpu0.iq.FU_type_0::SimdFloatAdd              0      0.00%     56.31% # Type of FU issued
system.cpu0.iq.FU_type_0::SimdFloatAlu              0      0.00%     56.31% # Type of FU issued
system.cpu0.iq.FU_type_0::SimdFloatCmp              0      0.00%     56.31% # Type of FU issued
system.cpu0.iq.FU_type_0::SimdFloatCvt              0      0.00%     56.31% # Type of FU issued
system.cpu0.iq.FU_type_0::SimdFloatDiv              0      0.00%     56.31% # Type of FU issued
system.cpu0.iq.FU_type_0::SimdFloatMisc             0      0.00%     56.31% # Type of FU issued
system.cpu0.iq.FU_type_0::SimdFloatMult             0      0.00%     56.31% # Type of FU issued
system.cpu0.iq.FU_type_0::SimdFloatMultAcc            0      0.00%     56.31% # Type of FU issued
system.cpu0.iq.FU_type_0::SimdFloatSqrt             0      0.00%     56.31% # Type of FU issued
system.cpu0.iq.FU_type_0::SimdReduceAdd             0      0.00%     56.31% # Type of FU issued
system.cpu0.iq.FU_type_0::SimdReduceAlu             0      0.00%     56.31% # Type of FU issued
system.cpu0.iq.FU_type_0::SimdReduceCmp             0      0.00%     56.31% # Type of FU issued
system.cpu0.iq.FU_type_0::SimdFloatReduceAdd            0      0.00%     56.31% # Type of FU issued
system.cpu0.iq.FU_type_0::SimdFloatReduceCmp            0      0.00%     56.31% # Type of FU issued
system.cpu0.iq.FU_type_0::SimdAes                   0      0.00%     56.31% # Type of FU issued
system.cpu0.iq.FU_type_0::SimdAesMix                0      0.00%     56.31% # Type of FU issued
system.cpu0.iq.FU_type_0::SimdSha1Hash              0      0.00%     56.31% # Type of FU issued
system.cpu0.iq.FU_type_0::SimdSha1Hash2             0      0.00%     56.31% # Type of FU issued
system.cpu0.iq.FU_type_0::SimdSha256Hash            0      0.00%     56.31% # Type of FU issued
system.cpu0.iq.FU_type_0::SimdSha256Hash2            0      0.00%     56.31% # Type of FU issued
system.cpu0.iq.FU_type_0::SimdShaSigma2             0      0.00%     56.31% # Type of FU issued
system.cpu0.iq.FU_type_0::SimdShaSigma3             0      0.00%     56.31% # Type of FU issued
system.cpu0.iq.FU_type_0::SimdPredAlu               0      0.00%     56.31% # Type of FU issued
system.cpu0.iq.FU_type_0::MemRead           739211468     31.84%     88.15% # Type of FU issued
system.cpu0.iq.FU_type_0::MemWrite          275069942     11.85%    100.00% # Type of FU issued
system.cpu0.iq.FU_type_0::FloatMemRead             10      0.00%    100.00% # Type of FU issued
system.cpu0.iq.FU_type_0::FloatMemWrite            20      0.00%    100.00% # Type of FU issued
system.cpu0.iq.FU_type_0::IprAccess                 0      0.00%    100.00% # Type of FU issued
system.cpu0.iq.FU_type_0::InstPrefetch              0      0.00%    100.00% # Type of FU issued
system.cpu0.iq.FU_type_0::total            2321402352                       # Type of FU issued
system.cpu0.iq.fp_alu_accesses                     56                       # Number of floating point alu accesses
system.cpu0.iq.fp_inst_queue_reads                108                       # Number of floating instruction queue reads
system.cpu0.iq.fp_inst_queue_wakeup_accesses           52                       # Number of floating instruction queue wakeup accesses
system.cpu0.iq.fp_inst_queue_writes                54                       # Number of floating instruction queue writes
system.cpu0.iq.fu_busy_cnt                    4430807                       # FU busy when requested
system.cpu0.iq.fu_busy_rate                  0.001909                       # FU busy rate (busy events/executed inst)
system.cpu0.iq.fu_full::No_OpClass                  0      0.00%      0.00% # attempts to use FU when none available
system.cpu0.iq.fu_full::IntAlu                 678905     15.32%     15.32% # attempts to use FU when none available
system.cpu0.iq.fu_full::IntMult                    19      0.00%     15.32% # attempts to use FU when none available
system.cpu0.iq.fu_full::IntDiv                      0      0.00%     15.32% # attempts to use FU when none available
system.cpu0.iq.fu_full::FloatAdd                    0      0.00%     15.32% # attempts to use FU when none available
system.cpu0.iq.fu_full::FloatCmp                    0      0.00%     15.32% # attempts to use FU when none available
system.cpu0.iq.fu_full::FloatCvt                    0      0.00%     15.32% # attempts to use FU when none available
system.cpu0.iq.fu_full::FloatMult                   0      0.00%     15.32% # attempts to use FU when none available
system.cpu0.iq.fu_full::FloatMultAcc                0      0.00%     15.32% # attempts to use FU when none available
system.cpu0.iq.fu_full::FloatDiv                    0      0.00%     15.32% # attempts to use FU when none available
system.cpu0.iq.fu_full::FloatMisc                   0      0.00%     15.32% # attempts to use FU when none available
system.cpu0.iq.fu_full::FloatSqrt                   0      0.00%     15.32% # attempts to use FU when none available
system.cpu0.iq.fu_full::SimdAdd                     0      0.00%     15.32% # attempts to use FU when none available
system.cpu0.iq.fu_full::SimdAddAcc                  0      0.00%     15.32% # attempts to use FU when none available
system.cpu0.iq.fu_full::SimdAlu                     0      0.00%     15.32% # attempts to use FU when none available
system.cpu0.iq.fu_full::SimdCmp                     0      0.00%     15.32% # attempts to use FU when none available
system.cpu0.iq.fu_full::SimdCvt                     0      0.00%     15.32% # attempts to use FU when none available
system.cpu0.iq.fu_full::SimdMisc                    0      0.00%     15.32% # attempts to use FU when none available
system.cpu0.iq.fu_full::SimdMult                    0      0.00%     15.32% # attempts to use FU when none available
system.cpu0.iq.fu_full::SimdMultAcc                 0      0.00%     15.32% # attempts to use FU when none available
system.cpu0.iq.fu_full::SimdShift                   0      0.00%     15.32% # attempts to use FU when none available
system.cpu0.iq.fu_full::SimdShiftAcc                0      0.00%     15.32% # attempts to use FU when none available
system.cpu0.iq.fu_full::SimdDiv                     0      0.00%     15.32% # attempts to use FU when none available
system.cpu0.iq.fu_full::SimdSqrt                    0      0.00%     15.32% # attempts to use FU when none available
system.cpu0.iq.fu_full::SimdFloatAdd                0      0.00%     15.32% # attempts to use FU when none available
system.cpu0.iq.fu_full::SimdFloatAlu                0      0.00%     15.32% # attempts to use FU when none available
system.cpu0.iq.fu_full::SimdFloatCmp                0      0.00%     15.32% # attempts to use FU when none available
system.cpu0.iq.fu_full::SimdFloatCvt                0      0.00%     15.32% # attempts to use FU when none available
system.cpu0.iq.fu_full::SimdFloatDiv                0      0.00%     15.32% # attempts to use FU when none available
system.cpu0.iq.fu_full::SimdFloatMisc               0      0.00%     15.32% # attempts to use FU when none available
system.cpu0.iq.fu_full::SimdFloatMult               0      0.00%     15.32% # attempts to use FU when none available
system.cpu0.iq.fu_full::SimdFloatMultAcc            0      0.00%     15.32% # attempts to use FU when none available
system.cpu0.iq.fu_full::SimdFloatSqrt               0      0.00%     15.32% # attempts to use FU when none available
system.cpu0.iq.fu_full::SimdReduceAdd               0      0.00%     15.32% # attempts to use FU when none available
system.cpu0.iq.fu_full::SimdReduceAlu               0      0.00%     15.32% # attempts to use FU when none available
system.cpu0.iq.fu_full::SimdReduceCmp               0      0.00%     15.32% # attempts to use FU when none available
system.cpu0.iq.fu_full::SimdFloatReduceAdd            0      0.00%     15.32% # attempts to use FU when none available
system.cpu0.iq.fu_full::SimdFloatReduceCmp            0      0.00%     15.32% # attempts to use FU when none available
system.cpu0.iq.fu_full::SimdAes                     0      0.00%     15.32% # attempts to use FU when none available
system.cpu0.iq.fu_full::SimdAesMix                  0      0.00%     15.32% # attempts to use FU when none available
system.cpu0.iq.fu_full::SimdSha1Hash                0      0.00%     15.32% # attempts to use FU when none available
system.cpu0.iq.fu_full::SimdSha1Hash2               0      0.00%     15.32% # attempts to use FU when none available
system.cpu0.iq.fu_full::SimdSha256Hash              0      0.00%     15.32% # attempts to use FU when none available
system.cpu0.iq.fu_full::SimdSha256Hash2             0      0.00%     15.32% # attempts to use FU when none available
system.cpu0.iq.fu_full::SimdShaSigma2               0      0.00%     15.32% # attempts to use FU when none available
system.cpu0.iq.fu_full::SimdShaSigma3               0      0.00%     15.32% # attempts to use FU when none available
system.cpu0.iq.fu_full::SimdPredAlu                 0      0.00%     15.32% # attempts to use FU when none available
system.cpu0.iq.fu_full::MemRead               3289927     74.25%     89.57% # attempts to use FU when none available
system.cpu0.iq.fu_full::MemWrite               461952     10.43%    100.00% # attempts to use FU when none available
system.cpu0.iq.fu_full::FloatMemRead                0      0.00%    100.00% # attempts to use FU when none available
system.cpu0.iq.fu_full::FloatMemWrite               4      0.00%    100.00% # attempts to use FU when none available
system.cpu0.iq.fu_full::IprAccess                   0      0.00%    100.00% # attempts to use FU when none available
system.cpu0.iq.fu_full::InstPrefetch                0      0.00%    100.00% # attempts to use FU when none available
system.cpu0.iq.int_alu_accesses            2318221328                       # Number of integer alu accesses
system.cpu0.iq.int_inst_queue_reads        8261281487                       # Number of integer instruction queue reads
system.cpu0.iq.int_inst_queue_wakeup_accesses   2295139532                       # Number of integer instruction queue wakeup accesses
system.cpu0.iq.int_inst_queue_writes       2419144158                       # Number of integer instruction queue writes
system.cpu0.iq.iqInstsAdded                2312455303                       # Number of instructions added to the IQ (excludes non-spec)
system.cpu0.iq.iqInstsIssued               2321402352                       # Number of instructions issued
system.cpu0.iq.iqNonSpecInstsAdded           11419884                       # Number of non-speculative instructions added to the IQ
system.cpu0.iq.iqSquashedInstsExamined       95254725                       # Number of squashed instructions iterated over during squash; mainly for profiling
system.cpu0.iq.iqSquashedInstsIssued           244483                       # Number of squashed instructions issued
system.cpu0.iq.iqSquashedNonSpecRemoved           409                       # Number of squashed non-spec instructions that were removed
system.cpu0.iq.iqSquashedOperandsExamined     28909009                       # Number of squashed operands that are examined and possibly removed from graph
system.cpu0.iq.issued_per_cycle::samples   3613801601                       # Number of insts issued each cycle
system.cpu0.iq.issued_per_cycle::mean        0.642371                       # Number of insts issued each cycle
system.cpu0.iq.issued_per_cycle::stdev       0.857918                       # Number of insts issued each cycle
system.cpu0.iq.issued_per_cycle::underflows            0      0.00%      0.00% # Number of insts issued each cycle
system.cpu0.iq.issued_per_cycle::0         1996159849     55.24%     55.24% # Number of insts issued each cycle
system.cpu0.iq.issued_per_cycle::1         1089258076     30.14%     85.38% # Number of insts issued each cycle
system.cpu0.iq.issued_per_cycle::2          378660156     10.48%     95.86% # Number of insts issued each cycle
system.cpu0.iq.issued_per_cycle::3          130150188      3.60%     99.46% # Number of insts issued each cycle
system.cpu0.iq.issued_per_cycle::4           16301251      0.45%     99.91% # Number of insts issued each cycle
system.cpu0.iq.issued_per_cycle::5            1342335      0.04%     99.95% # Number of insts issued each cycle
system.cpu0.iq.issued_per_cycle::6            1314773      0.04%     99.98% # Number of insts issued each cycle
system.cpu0.iq.issued_per_cycle::7             351701      0.01%     99.99% # Number of insts issued each cycle
system.cpu0.iq.issued_per_cycle::8             263272      0.01%    100.00% # Number of insts issued each cycle
system.cpu0.iq.issued_per_cycle::overflows            0      0.00%    100.00% # Number of insts issued each cycle
system.cpu0.iq.issued_per_cycle::min_value            0                       # Number of insts issued each cycle
system.cpu0.iq.issued_per_cycle::max_value            8                       # Number of insts issued each cycle
system.cpu0.iq.issued_per_cycle::total     3613801601                       # Number of insts issued each cycle
system.cpu0.iq.rate                          0.599707                       # Inst issue rate
system.cpu0.iq.vec_alu_accesses                     0                       # Number of vector alu accesses
system.cpu0.iq.vec_inst_queue_reads                 0                       # Number of vector instruction queue reads
system.cpu0.iq.vec_inst_queue_wakeup_accesses            0                       # Number of vector instruction queue wakeup accesses
system.cpu0.iq.vec_inst_queue_writes                0                       # Number of vector instruction queue writes
system.cpu0.itb.accesses                            0                       # DTB accesses
system.cpu0.itb.hits                                0                       # DTB hits
system.cpu0.itb.misses                              0                       # DTB misses
system.cpu0.itb.read_accesses                       0                       # DTB read accesses
system.cpu0.itb.read_hits                           0                       # DTB read hits
system.cpu0.itb.read_misses                         0                       # DTB read misses
system.cpu0.itb.write_accesses                      0                       # DTB write accesses
system.cpu0.itb.write_hits                          0                       # DTB write hits
system.cpu0.itb.write_misses                        0                       # DTB write misses
system.cpu0.memDep0.conflictingLoads         35142127                       # Number of conflicting loads.
system.cpu0.memDep0.conflictingStores         7356677                       # Number of conflicting stores.
system.cpu0.memDep0.insertedLoads           729552121                       # Number of loads inserted to the mem dependence unit.
system.cpu0.memDep0.insertedStores          280321659                       # Number of stores inserted to the mem dependence unit.
system.cpu0.misc_regfile_reads                   2894                       # number of misc regfile reads
system.cpu0.misc_regfile_writes                    22                       # number of misc regfile writes
system.cpu0.numCycles                      3870894696                       # number of cpu cycles simulated
system.cpu0.numWorkItemsCompleted                   0                       # number of work items this cpu completed
system.cpu0.numWorkItemsStarted                     0                       # number of work items this cpu started
system.cpu0.quiesceCycles                     6012096                       # Total number of cycles that CPU has spent quiesced or waiting for an interrupt
system.cpu0.rename.BlockCycles              588749079                       # Number of cycles rename is blocking
system.cpu0.rename.CommittedMaps           1421331787                       # Number of HB maps that are committed
system.cpu0.rename.IQFullEvents              25281475                       # Number of times rename has blocked due to IQ full
system.cpu0.rename.IdleCycles              1343633852                       # Number of cycles rename is idle
system.cpu0.rename.LQFullEvents              15103614                       # Number of times rename has blocked due to LQ full
system.cpu0.rename.ROBFullEvents                62852                       # Number of times rename has blocked due to ROB full
system.cpu0.rename.RenameLookups           2878582887                       # Number of register rename lookups that rename has made
system.cpu0.rename.RenamedInsts            2350770254                       # Number of instructions processed by rename
system.cpu0.rename.RenamedOperands         1509295916                       # Number of destination operands rename has renamed
system.cpu0.rename.RunCycles               1605399220                       # Number of cycles rename is running
system.cpu0.rename.SQFullEvents              17739862                       # Number of times rename has blocked due to SQ full
system.cpu0.rename.SquashCycles              17312765                       # Number of cycles rename is squashing
system.cpu0.rename.UnblockCycles             58475229                       # Number of cycles rename is unblocking
system.cpu0.rename.UndoneMaps                87964125                       # Number of HB maps that are undone due to squashing
system.cpu0.rename.fp_rename_lookups               44                       # Number of floating rename lookups
system.cpu0.rename.int_rename_lookups      2878582843                       # Number of integer rename lookups
system.cpu0.rename.serializeStallCycles        231456                       # count of cycles rename stalled for serializing inst
system.cpu0.rename.serializingInsts              8856                       # count of serializing insts renamed
system.cpu0.rename.skidInsts                 51950599                       # count of insts added to the skid buffer
system.cpu0.rename.tempSerializingInsts          8847                       # count of temporary serializing insts renamed
system.cpu0.rob.rob_reads                  5852756620                       # The number of ROB reads
system.cpu0.rob.rob_writes                 4673144401                       # The number of ROB writes
system.cpu0.timesIdled                       40362153                       # Number of times that the entire CPU went into an idle state and unscheduled itself
system.cpu0.workload.numSyscalls                 2861                       # Number of system calls
system.cpu1.branchPred.BTBCorrect                   0                       # Number of correct BTB predictions (this stat may not work properly.
system.cpu1.branchPred.BTBHitPct            93.480682                       # BTB Hit Percentage
system.cpu1.branchPred.BTBHits               17404568                       # Number of BTB hits
system.cpu1.branchPred.BTBLookups            18618358                       # Number of BTB lookups
system.cpu1.branchPred.RASInCorrect                 0                       # Number of incorrect RAS predictions.
system.cpu1.branchPred.condIncorrect          1760791                       # Number of conditional branches incorrect
system.cpu1.branchPred.condPredicted         31426644                       # Number of conditional branches predicted
system.cpu1.branchPred.indirectHits            910742                       # Number of indirect target hits.
system.cpu1.branchPred.indirectLookups         919294                       # Number of indirect predictor lookups.
system.cpu1.branchPred.indirectMisses            8552                       # Number of indirect misses.
system.cpu1.branchPred.lookups               34592305                       # Number of BP lookups
system.cpu1.branchPred.usedRAS                      0                       # Number of times the RAS was used to get a target.
system.cpu1.branchPredindirectMispredicted        47410                       # Number of mispredicted indirect branches.
system.cpu1.commit.amos                       3801577                       # Number of atomic instructions committed
system.cpu1.commit.branchMispredicts          1360757                       # The number of times a branch was mispredicted
system.cpu1.commit.branches                  29518895                       # Number of branches committed
system.cpu1.commit.bw_lim_events              2612722                       # number cycles where commit BW limit reached
system.cpu1.commit.commitNonSpecStalls       11405409                       # The number of times commit has been forced to stall to communicate backwards
system.cpu1.commit.commitSquashedInsts       12058992                       # The number of squashed insts skipped by commit
system.cpu1.commit.committedInsts           130075936                       # Number of instructions committed
system.cpu1.commit.committedOps             133877692                       # Number of ops (including micro ops) committed
system.cpu1.commit.committed_per_cycle::samples    648238647                       # Number of insts commited each cycle
system.cpu1.commit.committed_per_cycle::mean     0.206525                       # Number of insts commited each cycle
system.cpu1.commit.committed_per_cycle::stdev     0.871170                       # Number of insts commited each cycle
system.cpu1.commit.committed_per_cycle::underflows            0      0.00%      0.00% # Number of insts commited each cycle
system.cpu1.commit.committed_per_cycle::0    590601631     91.11%     91.11% # Number of insts commited each cycle
system.cpu1.commit.committed_per_cycle::1     29044122      4.48%     95.59% # Number of insts commited each cycle
system.cpu1.commit.committed_per_cycle::2      9931010      1.53%     97.12% # Number of insts commited each cycle
system.cpu1.commit.committed_per_cycle::3      9220141      1.42%     98.54% # Number of insts commited each cycle
system.cpu1.commit.committed_per_cycle::4      2085496      0.32%     98.87% # Number of insts commited each cycle
system.cpu1.commit.committed_per_cycle::5       821014      0.13%     98.99% # Number of insts commited each cycle
system.cpu1.commit.committed_per_cycle::6      3495280      0.54%     99.53% # Number of insts commited each cycle
system.cpu1.commit.committed_per_cycle::7       427231      0.07%     99.60% # Number of insts commited each cycle
system.cpu1.commit.committed_per_cycle::8      2612722      0.40%    100.00% # Number of insts commited each cycle
system.cpu1.commit.committed_per_cycle::overflows            0      0.00%    100.00% # Number of insts commited each cycle
system.cpu1.commit.committed_per_cycle::min_value            0                       # Number of insts commited each cycle
system.cpu1.commit.committed_per_cycle::max_value            8                       # Number of insts commited each cycle
system.cpu1.commit.committed_per_cycle::total    648238647                       # Number of insts commited each cycle
system.cpu1.commit.fp_insts                        12                       # Number of committed floating point instructions.
system.cpu1.commit.function_calls             1457323                       # Number of function calls committed.
system.cpu1.commit.int_insts                125281839                       # Number of committed integer instructions.
system.cpu1.commit.loads                     36891588                       # Number of loads committed
system.cpu1.commit.membars                    7603278                       # Number of memory barriers committed
system.cpu1.commit.op_class_0::No_OpClass      7603278      5.68%      5.68% # Class of committed instruction
system.cpu1.commit.op_class_0::IntAlu        77457279     57.86%     63.54% # Class of committed instruction
system.cpu1.commit.op_class_0::IntMult             44      0.00%     63.54% # Class of committed instruction
system.cpu1.commit.op_class_0::IntDiv              88      0.00%     63.54% # Class of committed instruction
system.cpu1.commit.op_class_0::FloatAdd             0      0.00%     63.54% # Class of committed instruction
system.cpu1.commit.op_class_0::FloatCmp             0      0.00%     63.54% # Class of committed instruction
system.cpu1.commit.op_class_0::FloatCvt             0      0.00%     63.54% # Class of committed instruction
system.cpu1.commit.op_class_0::FloatMult            0      0.00%     63.54% # Class of committed instruction
system.cpu1.commit.op_class_0::FloatMultAcc            0      0.00%     63.54% # Class of committed instruction
system.cpu1.commit.op_class_0::FloatDiv             0      0.00%     63.54% # Class of committed instruction
system.cpu1.commit.op_class_0::FloatMisc            0      0.00%     63.54% # Class of committed instruction
system.cpu1.commit.op_class_0::FloatSqrt            0      0.00%     63.54% # Class of committed instruction
system.cpu1.commit.op_class_0::SimdAdd              0      0.00%     63.54% # Class of committed instruction
system.cpu1.commit.op_class_0::SimdAddAcc            0      0.00%     63.54% # Class of committed instruction
system.cpu1.commit.op_class_0::SimdAlu              0      0.00%     63.54% # Class of committed instruction
system.cpu1.commit.op_class_0::SimdCmp              0      0.00%     63.54% # Class of committed instruction
system.cpu1.commit.op_class_0::SimdCvt              0      0.00%     63.54% # Class of committed instruction
system.cpu1.commit.op_class_0::SimdMisc             0      0.00%     63.54% # Class of committed instruction
system.cpu1.commit.op_class_0::SimdMult             0      0.00%     63.54% # Class of committed instruction
system.cpu1.commit.op_class_0::SimdMultAcc            0      0.00%     63.54% # Class of committed instruction
system.cpu1.commit.op_class_0::SimdShift            0      0.00%     63.54% # Class of committed instruction
system.cpu1.commit.op_class_0::SimdShiftAcc            0      0.00%     63.54% # Class of committed instruction
system.cpu1.commit.op_class_0::SimdDiv              0      0.00%     63.54% # Class of committed instruction
system.cpu1.commit.op_class_0::SimdSqrt             0      0.00%     63.54% # Class of committed instruction
system.cpu1.commit.op_class_0::SimdFloatAdd            0      0.00%     63.54% # Class of committed instruction
system.cpu1.commit.op_class_0::SimdFloatAlu            0      0.00%     63.54% # Class of committed instruction
system.cpu1.commit.op_class_0::SimdFloatCmp            0      0.00%     63.54% # Class of committed instruction
system.cpu1.commit.op_class_0::SimdFloatCvt            0      0.00%     63.54% # Class of committed instruction
system.cpu1.commit.op_class_0::SimdFloatDiv            0      0.00%     63.54% # Class of committed instruction
system.cpu1.commit.op_class_0::SimdFloatMisc            0      0.00%     63.54% # Class of committed instruction
system.cpu1.commit.op_class_0::SimdFloatMult            0      0.00%     63.54% # Class of committed instruction
system.cpu1.commit.op_class_0::SimdFloatMultAcc            0      0.00%     63.54% # Class of committed instruction
system.cpu1.commit.op_class_0::SimdFloatSqrt            0      0.00%     63.54% # Class of committed instruction
system.cpu1.commit.op_class_0::SimdReduceAdd            0      0.00%     63.54% # Class of committed instruction
system.cpu1.commit.op_class_0::SimdReduceAlu            0      0.00%     63.54% # Class of committed instruction
system.cpu1.commit.op_class_0::SimdReduceCmp            0      0.00%     63.54% # Class of committed instruction
system.cpu1.commit.op_class_0::SimdFloatReduceAdd            0      0.00%     63.54% # Class of committed instruction
system.cpu1.commit.op_class_0::SimdFloatReduceCmp            0      0.00%     63.54% # Class of committed instruction
system.cpu1.commit.op_class_0::SimdAes              0      0.00%     63.54% # Class of committed instruction
system.cpu1.commit.op_class_0::SimdAesMix            0      0.00%     63.54% # Class of committed instruction
system.cpu1.commit.op_class_0::SimdSha1Hash            0      0.00%     63.54% # Class of committed instruction
system.cpu1.commit.op_class_0::SimdSha1Hash2            0      0.00%     63.54% # Class of committed instruction
system.cpu1.commit.op_class_0::SimdSha256Hash            0      0.00%     63.54% # Class of committed instruction
system.cpu1.commit.op_class_0::SimdSha256Hash2            0      0.00%     63.54% # Class of committed instruction
system.cpu1.commit.op_class_0::SimdShaSigma2            0      0.00%     63.54% # Class of committed instruction
system.cpu1.commit.op_class_0::SimdShaSigma3            0      0.00%     63.54% # Class of committed instruction
system.cpu1.commit.op_class_0::SimdPredAlu            0      0.00%     63.54% # Class of committed instruction
system.cpu1.commit.op_class_0::MemRead       40693165     30.40%     93.93% # Class of committed instruction
system.cpu1.commit.op_class_0::MemWrite       8123826      6.07%    100.00% # Class of committed instruction
system.cpu1.commit.op_class_0::FloatMemRead            0      0.00%    100.00% # Class of committed instruction
system.cpu1.commit.op_class_0::FloatMemWrite           12      0.00%    100.00% # Class of committed instruction
system.cpu1.commit.op_class_0::IprAccess            0      0.00%    100.00% # Class of committed instruction
system.cpu1.commit.op_class_0::InstPrefetch            0      0.00%    100.00% # Class of committed instruction
system.cpu1.commit.op_class_0::total        133877692                       # Class of committed instruction
system.cpu1.commit.refs                      48817003                       # Number of memory references committed
system.cpu1.commit.swp_count                        0                       # Number of s/w prefetches committed
system.cpu1.commit.vec_insts                        0                       # Number of committed Vector instructions.
system.cpu1.committedInsts                  130075936                       # Number of Instructions Simulated
system.cpu1.committedOps                    133877692                       # Number of Ops (including micro ops) Simulated
system.cpu1.cpi                              5.020105                       # CPI: Cycles Per Instruction
system.cpu1.cpi_total                        5.020105                       # CPI: Total CPI of All Threads
system.cpu1.decode.BlockedCycles            566497582                       # Number of cycles decode is blocked
system.cpu1.decode.BranchMispred               417029                       # Number of times decode detected a branch misprediction
system.cpu1.decode.BranchResolved            16772785                       # Number of times decode resolved a branch
system.cpu1.decode.DecodedInsts             151411064                       # Number of instructions handled by decode
system.cpu1.decode.IdleCycles                22677131                       # Number of cycles decode is idle
system.cpu1.decode.RunCycles                 52355911                       # Number of cycles decode is running
system.cpu1.decode.SquashCycles               1361790                       # Number of cycles decode is squashing
system.cpu1.decode.SquashedInsts              1148236                       # Number of squashed instructions handled by decode
system.cpu1.decode.UnblockCycles              7787154                       # Number of cycles decode is unblocking
system.cpu1.dtb.accesses                            0                       # DTB accesses
system.cpu1.dtb.hits                                0                       # DTB hits
system.cpu1.dtb.misses                              0                       # DTB misses
system.cpu1.dtb.read_accesses                       0                       # DTB read accesses
system.cpu1.dtb.read_hits                           0                       # DTB read hits
system.cpu1.dtb.read_misses                         0                       # DTB read misses
system.cpu1.dtb.write_accesses                      0                       # DTB write accesses
system.cpu1.dtb.write_hits                          0                       # DTB write hits
system.cpu1.dtb.write_misses                        0                       # DTB write misses
system.cpu1.fetch.Branches                   34592305                       # Number of branches that fetch encountered
system.cpu1.fetch.CacheLines                 22646845                       # Number of cache lines fetched
system.cpu1.fetch.Cycles                    624347191                       # Number of cycles fetch has run and was not squashing or blocked
system.cpu1.fetch.IcacheSquashes               346279                       # Number of outstanding Icache misses that were squashed
system.cpu1.fetch.Insts                     152495377                       # Number of instructions fetch has processed
system.cpu1.fetch.MiscStallCycles                   1                       # Number of cycles fetch has spent waiting on interrupts, or bad addresses, or out of MSHRs
system.cpu1.fetch.SquashCycles                3523648                       # Number of cycles fetch has spent squashing
system.cpu1.fetch.branchRate                 0.052975                       # Number of branch fetches per cycle
system.cpu1.fetch.icacheStallCycles          24570552                       # Number of cycles fetch is stalled on an Icache miss
system.cpu1.fetch.predictedBranches          18315310                       # Number of branches that fetch has predicted taken
system.cpu1.fetch.rate                       0.233532                       # Number of inst fetches per cycle
system.cpu1.fetch.rateDist::samples         650679568                       # Number of instructions fetched each cycle (Total)
system.cpu1.fetch.rateDist::mean             0.240207                       # Number of instructions fetched each cycle (Total)
system.cpu1.fetch.rateDist::stdev            0.684388                       # Number of instructions fetched each cycle (Total)
system.cpu1.fetch.rateDist::underflows              0      0.00%      0.00% # Number of instructions fetched each cycle (Total)
system.cpu1.fetch.rateDist::0               556271006     85.49%     85.49% # Number of instructions fetched each cycle (Total)
system.cpu1.fetch.rateDist::1                54856914      8.43%     93.92% # Number of instructions fetched each cycle (Total)
system.cpu1.fetch.rateDist::2                23708201      3.64%     97.57% # Number of instructions fetched each cycle (Total)
system.cpu1.fetch.rateDist::3                11112973      1.71%     99.27% # Number of instructions fetched each cycle (Total)
system.cpu1.fetch.rateDist::4                 3489555      0.54%     99.81% # Number of instructions fetched each cycle (Total)
system.cpu1.fetch.rateDist::5                  719412      0.11%     99.92% # Number of instructions fetched each cycle (Total)
system.cpu1.fetch.rateDist::6                  520989      0.08%    100.00% # Number of instructions fetched each cycle (Total)
system.cpu1.fetch.rateDist::7                      13      0.00%    100.00% # Number of instructions fetched each cycle (Total)
system.cpu1.fetch.rateDist::8                     505      0.00%    100.00% # Number of instructions fetched each cycle (Total)
system.cpu1.fetch.rateDist::overflows               0      0.00%    100.00% # Number of instructions fetched each cycle (Total)
system.cpu1.fetch.rateDist::min_value               0                       # Number of instructions fetched each cycle (Total)
system.cpu1.fetch.rateDist::max_value               8                       # Number of instructions fetched each cycle (Total)
system.cpu1.fetch.rateDist::total           650679568                       # Number of instructions fetched each cycle (Total)
system.cpu1.fp_regfile_reads                       12                       # number of floating regfile reads
system.cpu1.idleCycles                        2315350                       # Total number of cycles that the CPU has spent unscheduled due to idling
system.cpu1.iew.branchMispredicts             1456282                       # Number of branch mispredicts detected at execute
system.cpu1.iew.exec_branches                31127756                       # Number of branches executed
system.cpu1.iew.exec_nop                            0                       # number of nop insts executed
system.cpu1.iew.exec_rate                    0.217932                       # Inst execution rate
system.cpu1.iew.exec_refs                    51643952                       # number of memory reference insts executed
system.cpu1.iew.exec_stores                  12340294                       # Number of stores executed
system.cpu1.iew.exec_swp                            0                       # number of swp insts executed
system.cpu1.iew.iewBlockCycles              491628784                       # Number of cycles IEW is blocking
system.cpu1.iew.iewDispLoadInsts             39737346                       # Number of dispatched load instructions
system.cpu1.iew.iewDispNonSpecInsts           3802250                       # Number of dispatched non-speculative instructions
system.cpu1.iew.iewDispSquashedInsts          1470677                       # Number of squashed instructions skipped by dispatch
system.cpu1.iew.iewDispStoreInsts            12713584                       # Number of dispatched store instructions
system.cpu1.iew.iewDispatchedInsts          145924550                       # Number of instructions dispatched to IQ
system.cpu1.iew.iewExecLoadInsts             39303658                       # Number of load instructions executed
system.cpu1.iew.iewExecSquashedInsts          1287718                       # Number of squashed instructions skipped in execute
system.cpu1.iew.iewExecutedInsts            142308223                       # Number of executed instructions
system.cpu1.iew.iewIQFullEvents               3596101                       # Number of times the IQ has become full, causing a stall
system.cpu1.iew.iewIdleCycles                       0                       # Number of cycles IEW is idle
system.cpu1.iew.iewLSQFullEvents              3457353                       # Number of times the LSQ has become full, causing a stall
system.cpu1.iew.iewSquashCycles               1361790                       # Number of cycles IEW is squashing
system.cpu1.iew.iewUnblockCycles             11557580                       # Number of cycles IEW is unblocking
system.cpu1.iew.lsq.thread0.blockedLoads            0                       # Number of blocked loads due to partial load-store forwarding
system.cpu1.iew.lsq.thread0.cacheBlocked        41040                       # Number of times an access to memory failed due to the cache being blocked
system.cpu1.iew.lsq.thread0.forwLoads         1001716                       # Number of loads that had data forwarded from stores
system.cpu1.iew.lsq.thread0.ignoredResponses        36922                       # Number of memory responses ignored because the instruction is squashed
system.cpu1.iew.lsq.thread0.invAddrLoads            0                       # Number of loads ignored due to an invalid address
system.cpu1.iew.lsq.thread0.invAddrSwpfs            0                       # Number of software prefetches ignored due to an invalid address
system.cpu1.iew.lsq.thread0.memOrderViolation         1229                       # Number of memory ordering violations
system.cpu1.iew.lsq.thread0.rescheduledLoads         3040                       # Number of loads that were rescheduled
system.cpu1.iew.lsq.thread0.squashedLoads      2845758                       # Number of loads squashed
system.cpu1.iew.lsq.thread0.squashedStores       788169                       # Number of stores squashed
system.cpu1.iew.memOrderViolationEvents          1229                       # Number of memory order violations
system.cpu1.iew.predictedNotTakenIncorrect       491526                       # Number of branches that were predicted not taken incorrectly
system.cpu1.iew.predictedTakenIncorrect        964756                       # Number of branches that were predicted taken incorrectly
system.cpu1.iew.wb_consumers                 80715974                       # num instructions consuming a value
system.cpu1.iew.wb_count                    141292154                       # cumulative count of insts written-back
system.cpu1.iew.wb_fanout                    0.849793                       # average fanout of values written-back
system.cpu1.iew.wb_producers                 68591877                       # num instructions producing a value
system.cpu1.iew.wb_rate                      0.216376                       # insts written-back per cycle
system.cpu1.iew.wb_sent                     141338375                       # cumulative count of insts sent to commit
system.cpu1.int_regfile_reads               176899075                       # number of integer regfile reads
system.cpu1.int_regfile_writes               94830902                       # number of integer regfile writes
system.cpu1.ipc                              0.199199                       # IPC: Instructions Per Cycle
system.cpu1.ipc_total                        0.199199                       # IPC: Total IPC of All Threads
system.cpu1.iq.FU_type_0::No_OpClass          7603381      5.29%      5.29% # Type of FU issued
system.cpu1.iq.FU_type_0::IntAlu             84005754     58.50%     63.80% # Type of FU issued
system.cpu1.iq.FU_type_0::IntMult                  46      0.00%     63.80% # Type of FU issued
system.cpu1.iq.FU_type_0::IntDiv                   88      0.00%     63.80% # Type of FU issued
system.cpu1.iq.FU_type_0::FloatAdd                  0      0.00%     63.80% # Type of FU issued
system.cpu1.iq.FU_type_0::FloatCmp                  0      0.00%     63.80% # Type of FU issued
system.cpu1.iq.FU_type_0::FloatCvt                  0      0.00%     63.80% # Type of FU issued
system.cpu1.iq.FU_type_0::FloatMult                 0      0.00%     63.80% # Type of FU issued
system.cpu1.iq.FU_type_0::FloatMultAcc              0      0.00%     63.80% # Type of FU issued
system.cpu1.iq.FU_type_0::FloatDiv                  0      0.00%     63.80% # Type of FU issued
system.cpu1.iq.FU_type_0::FloatMisc                 0      0.00%     63.80% # Type of FU issued
system.cpu1.iq.FU_type_0::FloatSqrt                 0      0.00%     63.80% # Type of FU issued
system.cpu1.iq.FU_type_0::SimdAdd                   0      0.00%     63.80% # Type of FU issued
system.cpu1.iq.FU_type_0::SimdAddAcc                0      0.00%     63.80% # Type of FU issued
system.cpu1.iq.FU_type_0::SimdAlu                   0      0.00%     63.80% # Type of FU issued
system.cpu1.iq.FU_type_0::SimdCmp                   0      0.00%     63.80% # Type of FU issued
system.cpu1.iq.FU_type_0::SimdCvt                   0      0.00%     63.80% # Type of FU issued
system.cpu1.iq.FU_type_0::SimdMisc                  0      0.00%     63.80% # Type of FU issued
system.cpu1.iq.FU_type_0::SimdMult                  0      0.00%     63.80% # Type of FU issued
system.cpu1.iq.FU_type_0::SimdMultAcc               0      0.00%     63.80% # Type of FU issued
system.cpu1.iq.FU_type_0::SimdShift                 0      0.00%     63.80% # Type of FU issued
system.cpu1.iq.FU_type_0::SimdShiftAcc              0      0.00%     63.80% # Type of FU issued
system.cpu1.iq.FU_type_0::SimdDiv                   0      0.00%     63.80% # Type of FU issued
system.cpu1.iq.FU_type_0::SimdSqrt                  0      0.00%     63.80% # Type of FU issued
system.cpu1.iq.FU_type_0::SimdFloatAdd              0      0.00%     63.80% # Type of FU issued
system.cpu1.iq.FU_type_0::SimdFloatAlu              0      0.00%     63.80% # Type of FU issued
system.cpu1.iq.FU_type_0::SimdFloatCmp              0      0.00%     63.80% # Type of FU issued
system.cpu1.iq.FU_type_0::SimdFloatCvt              0      0.00%     63.80% # Type of FU issued
system.cpu1.iq.FU_type_0::SimdFloatDiv              0      0.00%     63.80% # Type of FU issued
system.cpu1.iq.FU_type_0::SimdFloatMisc             0      0.00%     63.80% # Type of FU issued
system.cpu1.iq.FU_type_0::SimdFloatMult             0      0.00%     63.80% # Type of FU issued
system.cpu1.iq.FU_type_0::SimdFloatMultAcc            0      0.00%     63.80% # Type of FU issued
system.cpu1.iq.FU_type_0::SimdFloatSqrt             0      0.00%     63.80% # Type of FU issued
system.cpu1.iq.FU_type_0::SimdReduceAdd             0      0.00%     63.80% # Type of FU issued
system.cpu1.iq.FU_type_0::SimdReduceAlu             0      0.00%     63.80% # Type of FU issued
system.cpu1.iq.FU_type_0::SimdReduceCmp             0      0.00%     63.80% # Type of FU issued
system.cpu1.iq.FU_type_0::SimdFloatReduceAdd            0      0.00%     63.80% # Type of FU issued
system.cpu1.iq.FU_type_0::SimdFloatReduceCmp            0      0.00%     63.80% # Type of FU issued
system.cpu1.iq.FU_type_0::SimdAes                   0      0.00%     63.80% # Type of FU issued
system.cpu1.iq.FU_type_0::SimdAesMix                0      0.00%     63.80% # Type of FU issued
system.cpu1.iq.FU_type_0::SimdSha1Hash              0      0.00%     63.80% # Type of FU issued
system.cpu1.iq.FU_type_0::SimdSha1Hash2             0      0.00%     63.80% # Type of FU issued
system.cpu1.iq.FU_type_0::SimdSha256Hash            0      0.00%     63.80% # Type of FU issued
system.cpu1.iq.FU_type_0::SimdSha256Hash2            0      0.00%     63.80% # Type of FU issued
system.cpu1.iq.FU_type_0::SimdShaSigma2             0      0.00%     63.80% # Type of FU issued
system.cpu1.iq.FU_type_0::SimdShaSigma3             0      0.00%     63.80% # Type of FU issued
system.cpu1.iq.FU_type_0::SimdPredAlu               0      0.00%     63.80% # Type of FU issued
system.cpu1.iq.FU_type_0::MemRead            43398836     30.22%     94.02% # Type of FU issued
system.cpu1.iq.FU_type_0::MemWrite            8587824      5.98%    100.00% # Type of FU issued
system.cpu1.iq.FU_type_0::FloatMemRead              0      0.00%    100.00% # Type of FU issued
system.cpu1.iq.FU_type_0::FloatMemWrite            12      0.00%    100.00% # Type of FU issued
system.cpu1.iq.FU_type_0::IprAccess                 0      0.00%    100.00% # Type of FU issued
system.cpu1.iq.FU_type_0::InstPrefetch              0      0.00%    100.00% # Type of FU issued
system.cpu1.iq.FU_type_0::total             143595941                       # Type of FU issued
system.cpu1.iq.fp_alu_accesses                     16                       # Number of floating point alu accesses
system.cpu1.iq.fp_inst_queue_reads                 28                       # Number of floating instruction queue reads
system.cpu1.iq.fp_inst_queue_wakeup_accesses           12                       # Number of floating instruction queue wakeup accesses
system.cpu1.iq.fp_inst_queue_writes                12                       # Number of floating instruction queue writes
system.cpu1.iq.fu_busy_cnt                    3847042                       # FU busy when requested
system.cpu1.iq.fu_busy_rate                  0.026791                       # FU busy rate (busy events/executed inst)
system.cpu1.iq.fu_full::No_OpClass                  0      0.00%      0.00% # attempts to use FU when none available
system.cpu1.iq.fu_full::IntAlu                 540849     14.06%     14.06% # attempts to use FU when none available
system.cpu1.iq.fu_full::IntMult                     0      0.00%     14.06% # attempts to use FU when none available
system.cpu1.iq.fu_full::IntDiv                      0      0.00%     14.06% # attempts to use FU when none available
system.cpu1.iq.fu_full::FloatAdd                    0      0.00%     14.06% # attempts to use FU when none available
system.cpu1.iq.fu_full::FloatCmp                    0      0.00%     14.06% # attempts to use FU when none available
system.cpu1.iq.fu_full::FloatCvt                    0      0.00%     14.06% # attempts to use FU when none available
system.cpu1.iq.fu_full::FloatMult                   0      0.00%     14.06% # attempts to use FU when none available
system.cpu1.iq.fu_full::FloatMultAcc                0      0.00%     14.06% # attempts to use FU when none available
system.cpu1.iq.fu_full::FloatDiv                    0      0.00%     14.06% # attempts to use FU when none available
system.cpu1.iq.fu_full::FloatMisc                   0      0.00%     14.06% # attempts to use FU when none available
system.cpu1.iq.fu_full::FloatSqrt                   0      0.00%     14.06% # attempts to use FU when none available
system.cpu1.iq.fu_full::SimdAdd                     0      0.00%     14.06% # attempts to use FU when none available
system.cpu1.iq.fu_full::SimdAddAcc                  0      0.00%     14.06% # attempts to use FU when none available
system.cpu1.iq.fu_full::SimdAlu                     0      0.00%     14.06% # attempts to use FU when none available
system.cpu1.iq.fu_full::SimdCmp                     0      0.00%     14.06% # attempts to use FU when none available
system.cpu1.iq.fu_full::SimdCvt                     0      0.00%     14.06% # attempts to use FU when none available
system.cpu1.iq.fu_full::SimdMisc                    0      0.00%     14.06% # attempts to use FU when none available
system.cpu1.iq.fu_full::SimdMult                    0      0.00%     14.06% # attempts to use FU when none available
system.cpu1.iq.fu_full::SimdMultAcc                 0      0.00%     14.06% # attempts to use FU when none available
system.cpu1.iq.fu_full::SimdShift                   0      0.00%     14.06% # attempts to use FU when none available
system.cpu1.iq.fu_full::SimdShiftAcc                0      0.00%     14.06% # attempts to use FU when none available
system.cpu1.iq.fu_full::SimdDiv                     0      0.00%     14.06% # attempts to use FU when none available
system.cpu1.iq.fu_full::SimdSqrt                    0      0.00%     14.06% # attempts to use FU when none available
system.cpu1.iq.fu_full::SimdFloatAdd                0      0.00%     14.06% # attempts to use FU when none available
system.cpu1.iq.fu_full::SimdFloatAlu                0      0.00%     14.06% # attempts to use FU when none available
system.cpu1.iq.fu_full::SimdFloatCmp                0      0.00%     14.06% # attempts to use FU when none available
system.cpu1.iq.fu_full::SimdFloatCvt                0      0.00%     14.06% # attempts to use FU when none available
system.cpu1.iq.fu_full::SimdFloatDiv                0      0.00%     14.06% # attempts to use FU when none available
system.cpu1.iq.fu_full::SimdFloatMisc               0      0.00%     14.06% # attempts to use FU when none available
system.cpu1.iq.fu_full::SimdFloatMult               0      0.00%     14.06% # attempts to use FU when none available
system.cpu1.iq.fu_full::SimdFloatMultAcc            0      0.00%     14.06% # attempts to use FU when none available
system.cpu1.iq.fu_full::SimdFloatSqrt               0      0.00%     14.06% # attempts to use FU when none available
system.cpu1.iq.fu_full::SimdReduceAdd               0      0.00%     14.06% # attempts to use FU when none available
system.cpu1.iq.fu_full::SimdReduceAlu               0      0.00%     14.06% # attempts to use FU when none available
system.cpu1.iq.fu_full::SimdReduceCmp               0      0.00%     14.06% # attempts to use FU when none available
system.cpu1.iq.fu_full::SimdFloatReduceAdd            0      0.00%     14.06% # attempts to use FU when none available
system.cpu1.iq.fu_full::SimdFloatReduceCmp            0      0.00%     14.06% # attempts to use FU when none available
system.cpu1.iq.fu_full::SimdAes                     0      0.00%     14.06% # attempts to use FU when none available
system.cpu1.iq.fu_full::SimdAesMix                  0      0.00%     14.06% # attempts to use FU when none available
system.cpu1.iq.fu_full::SimdSha1Hash                0      0.00%     14.06% # attempts to use FU when none available
system.cpu1.iq.fu_full::SimdSha1Hash2               0      0.00%     14.06% # attempts to use FU when none available
system.cpu1.iq.fu_full::SimdSha256Hash              0      0.00%     14.06% # attempts to use FU when none available
system.cpu1.iq.fu_full::SimdSha256Hash2             0      0.00%     14.06% # attempts to use FU when none available
system.cpu1.iq.fu_full::SimdShaSigma2               0      0.00%     14.06% # attempts to use FU when none available
system.cpu1.iq.fu_full::SimdShaSigma3               0      0.00%     14.06% # attempts to use FU when none available
system.cpu1.iq.fu_full::SimdPredAlu                 0      0.00%     14.06% # attempts to use FU when none available
system.cpu1.iq.fu_full::MemRead               3029119     78.74%     92.80% # attempts to use FU when none available
system.cpu1.iq.fu_full::MemWrite               277070      7.20%    100.00% # attempts to use FU when none available
[...]
system.cpu1.dcache.ReadReq_avg_mshr_miss_latency::.cpu1.data 67213.855990                       # average ReadReq mshr miss latency
system.cpu1.dcache.ReadReq_avg_mshr_miss_latency::total 67213.855990                       # average ReadReq mshr miss latency
system.cpu1.dcache.WriteReq_hits::.cpu1.data      3542505                       # number of WriteReq hits
system.cpu1.dcache.WriteReq_hits::total       3542505                       # number of WriteReq hits
system.cpu1.dcache.WriteReq_misses::.cpu1.data      1107248                       # number of WriteReq misses
system.cpu1.dcache.WriteReq_misses::total      1107248                       # number of WriteReq misses
system.cpu1.dcache.WriteReq_miss_latency::.cpu1.data  57957672213                       # number of WriteReq miss cycles
system.cpu1.dcache.WriteReq_miss_latency::total  57957672213                       # number of WriteReq miss cycles
system.cpu1.dcache.WriteReq_accesses::.cpu1.data      4649753                       # number of WriteReq accesses(hits+misses)
system.cpu1.dcache.WriteReq_accesses::total      4649753                       # number of WriteReq accesses(hits+misses)
system.cpu1.dcache.WriteReq_miss_rate::.cpu1.data     0.238130                       # miss rate for WriteReq accesses
system.cpu1.dcache.WriteReq_miss_rate::total     0.238130                       # miss rate for WriteReq accesses
system.cpu1.dcache.WriteReq_avg_miss_latency::.cpu1.data 52343.894243                       # average WriteReq miss latency
system.cpu1.dcache.WriteReq_avg_miss_latency::total 52343.894243                       # average WriteReq miss latency
system.cpu1.dcache.WriteReq_mshr_hits::.cpu1.data       886580                       # number of WriteReq MSHR hits
system.cpu1.dcache.WriteReq_mshr_hits::total       886580                       # number of WriteReq MSHR hits
system.cpu1.dcache.WriteReq_mshr_misses::.cpu1.data       220668                       # number of WriteReq MSHR misses
system.cpu1.dcache.WriteReq_mshr_misses::total       220668                       # number of WriteReq MSHR misses
system.cpu1.dcache.WriteReq_mshr_miss_latency::.cpu1.data   7619883971                       # number of WriteReq MSHR miss cycles
system.cpu1.dcache.WriteReq_mshr_miss_latency::total   7619883971                       # number of WriteReq MSHR miss cycles
system.cpu1.dcache.WriteReq_mshr_miss_rate::.cpu1.data     0.047458                       # mshr miss rate for WriteReq accesses
system.cpu1.dcache.WriteReq_mshr_miss_rate::total     0.047458                       # mshr miss rate for WriteReq accesses
system.cpu1.dcache.WriteReq_avg_mshr_miss_latency::.cpu1.data 34530.987597                       # average WriteReq mshr miss latency
system.cpu1.dcache.WriteReq_avg_mshr_miss_latency::total 34530.987597                       # average WriteReq mshr miss latency
system.cpu1.dcache.LoadLockedReq_hits::.cpu1.data       137584                       # number of LoadLockedReq hits
system.cpu1.dcache.LoadLockedReq_hits::total       137584                       # number of LoadLockedReq hits
system.cpu1.dcache.LoadLockedReq_misses::.cpu1.data          863                       # number of LoadLockedReq misses
system.cpu1.dcache.LoadLockedReq_misses::total          863                       # number of LoadLockedReq misses
system.cpu1.dcache.LoadLockedReq_miss_latency::.cpu1.data     45691000                       # number of LoadLockedReq miss cycles
system.cpu1.dcache.LoadLockedReq_miss_latency::total     45691000                       # number of LoadLockedReq miss cycles
system.cpu1.dcache.LoadLockedReq_accesses::.cpu1.data       138447                       # number of LoadLockedReq accesses(hits+misses)
system.cpu1.dcache.LoadLockedReq_accesses::total       138447                       # number of LoadLockedReq accesses(hits+misses)
system.cpu1.dcache.LoadLockedReq_miss_rate::.cpu1.data     0.006233                       # miss rate for LoadLockedReq accesses
system.cpu1.dcache.LoadLockedReq_miss_rate::total     0.006233                       # miss rate for LoadLockedReq accesses
system.cpu1.dcache.LoadLockedReq_avg_miss_latency::.cpu1.data 52944.380070                       # average LoadLockedReq miss latency
system.cpu1.dcache.LoadLockedReq_avg_miss_latency::total 52944.380070                       # average LoadLockedReq miss latency
system.cpu1.dcache.LoadLockedReq_mshr_hits::.cpu1.data          331                       # number of LoadLockedReq MSHR hits
system.cpu1.dcache.LoadLockedReq_mshr_hits::total          331                       # number of LoadLockedReq MSHR hits
system.cpu1.dcache.LoadLockedReq_mshr_misses::.cpu1.data          532                       # number of LoadLockedReq MSHR misses
system.cpu1.dcache.LoadLockedReq_mshr_misses::total          532                       # number of LoadLockedReq MSHR misses
system.cpu1.dcache.LoadLockedReq_mshr_miss_latency::.cpu1.data     23901500                       # number of LoadLockedReq MSHR miss cycles
system.cpu1.dcache.LoadLockedReq_mshr_miss_latency::total     23901500                       # number of LoadLockedReq MSHR miss cycles
system.cpu1.dcache.LoadLockedReq_mshr_miss_rate::.cpu1.data     0.003843                       # mshr miss rate for LoadLockedReq accesses
system.cpu1.dcache.LoadLockedReq_mshr_miss_rate::total     0.003843                       # mshr miss rate for LoadLockedReq accesses
system.cpu1.dcache.LoadLockedReq_avg_mshr_miss_latency::.cpu1.data 44927.631579                       # average LoadLockedReq mshr miss latency
system.cpu1.dcache.LoadLockedReq_avg_mshr_miss_latency::total 44927.631579                       # average LoadLockedReq mshr miss latency
system.cpu1.dcache.StoreCondReq_hits::.cpu1.data       136265                       # number of StoreCondReq hits
system.cpu1.dcache.StoreCondReq_hits::total       136265                       # number of StoreCondReq hits
system.cpu1.dcache.StoreCondReq_misses::.cpu1.data         1819                       # number of StoreCondReq misses
system.cpu1.dcache.StoreCondReq_misses::total         1819                       # number of StoreCondReq misses
system.cpu1.dcache.StoreCondReq_miss_latency::.cpu1.data     12597500                       # number of StoreCondReq miss cycles
system.cpu1.dcache.StoreCondReq_miss_latency::total     12597500                       # number of StoreCondReq miss cycles
system.cpu1.dcache.StoreCondReq_accesses::.cpu1.data       138084                       # number of StoreCondReq accesses(hits+misses)
system.cpu1.dcache.StoreCondReq_accesses::total       138084                       # number of StoreCondReq accesses(hits+misses)
system.cpu1.dcache.StoreCondReq_miss_rate::.cpu1.data     0.013173                       # miss rate for StoreCondReq accesses
system.cpu1.dcache.StoreCondReq_miss_rate::total     0.013173                       # miss rate for StoreCondReq accesses
system.cpu1.dcache.StoreCondReq_avg_miss_latency::.cpu1.data  6925.508521                       # average StoreCondReq miss latency
system.cpu1.dcache.StoreCondReq_avg_miss_latency::total  6925.508521                       # average StoreCondReq miss latency
system.cpu1.dcache.StoreCondReq_mshr_misses::.cpu1.data         1756                       # number of StoreCondReq MSHR misses
system.cpu1.dcache.StoreCondReq_mshr_misses::total         1756                       # number of StoreCondReq MSHR misses
system.cpu1.dcache.StoreCondReq_mshr_miss_latency::.cpu1.data     10860500                       # number of StoreCondReq MSHR miss cycles
system.cpu1.dcache.StoreCondReq_mshr_miss_latency::total     10860500                       # number of StoreCondReq MSHR miss cycles
system.cpu1.dcache.StoreCondReq_mshr_miss_rate::.cpu1.data     0.012717                       # mshr miss rate for StoreCondReq accesses
system.cpu1.dcache.StoreCondReq_mshr_miss_rate::total     0.012717                       # mshr miss rate for StoreCondReq accesses
system.cpu1.dcache.StoreCondReq_avg_mshr_miss_latency::.cpu1.data  6184.794989                       # average StoreCondReq mshr miss latency
system.cpu1.dcache.StoreCondReq_avg_mshr_miss_latency::total  6184.794989                       # average StoreCondReq mshr miss latency
system.cpu1.dcache.StoreCondFailReq_miss_latency::.cpu1.data       285000                       # number of StoreCondFailReq miss cycles
system.cpu1.dcache.StoreCondFailReq_miss_latency::total       285000                       # number of StoreCondFailReq miss cycles
system.cpu1.dcache.StoreCondFailReq_avg_miss_latency::.cpu1.data          inf                       # average StoreCondFailReq miss latency
system.cpu1.dcache.StoreCondFailReq_avg_miss_latency::total          inf                       # average StoreCondFailReq miss latency
system.cpu1.dcache.StoreCondFailReq_mshr_miss_latency::.cpu1.data       266000                       # number of StoreCondFailReq MSHR miss cycles
system.cpu1.dcache.StoreCondFailReq_mshr_miss_latency::total       266000                       # number of StoreCondFailReq MSHR miss cycles
system.cpu1.dcache.StoreCondFailReq_avg_mshr_miss_latency::.cpu1.data          inf                       # average StoreCondFailReq mshr miss latency
system.cpu1.dcache.StoreCondFailReq_avg_mshr_miss_latency::total          inf                       # average StoreCondFailReq mshr miss latency
system.cpu1.dcache.SwapReq_hits::.cpu1.data         1719                       # number of SwapReq hits
system.cpu1.dcache.SwapReq_hits::total           1719                       # number of SwapReq hits
system.cpu1.dcache.SwapReq_misses::.cpu1.data         7206                       # number of SwapReq misses
system.cpu1.dcache.SwapReq_misses::total         7206                       # number of SwapReq misses
system.cpu1.dcache.SwapReq_miss_latency::.cpu1.data    367752499                       # number of SwapReq miss cycles
system.cpu1.dcache.SwapReq_miss_latency::total    367752499                       # number of SwapReq miss cycles
system.cpu1.dcache.SwapReq_accesses::.cpu1.data         8925                       # number of SwapReq accesses(hits+misses)
system.cpu1.dcache.SwapReq_accesses::total         8925                       # number of SwapReq accesses(hits+misses)
system.cpu1.dcache.SwapReq_miss_rate::.cpu1.data     0.807395                       # miss rate for SwapReq accesses
system.cpu1.dcache.SwapReq_miss_rate::total     0.807395                       # miss rate for SwapReq accesses
system.cpu1.dcache.SwapReq_avg_miss_latency::.cpu1.data 51034.207466                       # average SwapReq miss latency
system.cpu1.dcache.SwapReq_avg_miss_latency::total 51034.207466                       # average SwapReq miss latency
system.cpu1.dcache.SwapReq_mshr_misses::.cpu1.data         7206                       # number of SwapReq MSHR misses
system.cpu1.dcache.SwapReq_mshr_misses::total         7206                       # number of SwapReq MSHR misses
system.cpu1.dcache.SwapReq_mshr_miss_latency::.cpu1.data    360546499                       # number of SwapReq MSHR miss cycles
system.cpu1.dcache.SwapReq_mshr_miss_latency::total    360546499                       # number of SwapReq MSHR miss cycles
system.cpu1.dcache.SwapReq_mshr_miss_rate::.cpu1.data     0.807395                       # mshr miss rate for SwapReq accesses
system.cpu1.dcache.SwapReq_mshr_miss_rate::total     0.807395                       # mshr miss rate for SwapReq accesses
system.cpu1.dcache.SwapReq_avg_mshr_miss_latency::.cpu1.data 50034.207466                       # average SwapReq mshr miss latency
system.cpu1.dcache.SwapReq_avg_mshr_miss_latency::total 50034.207466                       # average SwapReq mshr miss latency
system.cpu1.dcache.tags.pwrStateResidencyTicks::UNDEFINED 206227622500                       # Cumulative time (in ticks) in various power states
system.cpu1.dcache.tags.tagsinuse           31.587598                       # Cycle average of tags in use
system.cpu1.dcache.tags.total_refs           49169542                       # Total number of references to valid blocks.
system.cpu1.dcache.tags.sampled_refs          5362127                       # Sample count of references to valid blocks.
system.cpu1.dcache.tags.avg_refs             9.169783                       # Average number of references to valid blocks.
system.cpu1.dcache.tags.warmup_cycle                0                       # Cycle when the warmup percentage was hit.
system.cpu1.dcache.tags.occ_blocks::.cpu1.data    31.587598                       # Average occupied blocks per requestor
system.cpu1.dcache.tags.occ_percent::.cpu1.data     0.987112                       # Average percentage of cache occupancy
system.cpu1.dcache.tags.occ_percent::total     0.987112                       # Average percentage of cache occupancy
system.cpu1.dcache.tags.occ_task_id_blocks::1024           28                       # Occupied blocks per task id
system.cpu1.dcache.tags.age_task_id_blocks_1024::1           28                       # Occupied blocks per task id
system.cpu1.dcache.tags.occ_task_id_percent::1024     0.875000                       # Percentage of cache occupancy per task id
system.cpu1.dcache.tags.tag_accesses        130092571                       # Number of tag accesses
system.cpu1.dcache.tags.data_accesses       130092571                       # Number of data accesses
system.cpu_clk_domain.clock                       500                       # Clock period in ticks
system.tol2bus.pwrStateResidencyTicks::UNDEFINED 206227622500                       # Cumulative time (in ticks) in various power states
system.tol2bus.trans_dist::ReadResp          10669826                       # Transaction distribution
system.tol2bus.trans_dist::WritebackDirty      2054472                       # Transaction distribution
system.tol2bus.trans_dist::WritebackClean      9707845                       # Transaction distribution
system.tol2bus.trans_dist::CleanEvict        18293909                       # Transaction distribution
system.tol2bus.trans_dist::HardPFReq          9649889                       # Transaction distribution
system.tol2bus.trans_dist::UpgradeReq          114758                       # Transaction distribution
system.tol2bus.trans_dist::SCUpgradeReq          4023                       # Transaction distribution
system.tol2bus.trans_dist::UpgradeResp         118781                       # Transaction distribution
system.tol2bus.trans_dist::SCUpgradeFailReq           32                       # Transaction distribution
system.tol2bus.trans_dist::UpgradeFailResp           32                       # Transaction distribution
system.tol2bus.trans_dist::ReadExReq           410541                       # Transaction distribution
system.tol2bus.trans_dist::ReadExResp          410542                       # Transaction distribution
system.tol2bus.trans_dist::ReadCleanReq        143631                       # Transaction distribution
system.tol2bus.trans_dist::ReadSharedReq     10526195                       # Transaction distribution
system.tol2bus.trans_dist::InvalidateReq         4783                       # Transaction distribution
system.tol2bus.trans_dist::InvalidateResp         4783                       # Transaction distribution
system.tol2bus.pkt_count_system.cpu0.icache.mem_side::system.l2.cpu_side       357510                       # Packet count per connected master and slave (bytes)
system.tol2bus.pkt_count_system.cpu0.dcache.mem_side::system.l2.cpu_side     16646326                       # Packet count per connected master and slave (bytes)
system.tol2bus.pkt_count_system.cpu1.icache.mem_side::system.l2.cpu_side        73353                       # Packet count per connected master and slave (bytes)
system.tol2bus.pkt_count_system.cpu1.dcache.mem_side::system.l2.cpu_side     15993245                       # Packet count per connected master and slave (bytes)
system.tol2bus.pkt_count::total              33070434                       # Packet count per connected master and slave (bytes)
system.tol2bus.pkt_size_system.cpu0.icache.mem_side::system.l2.cpu_side     15253120                       # Cumulative packet size per connected master and slave (bytes)
system.tol2bus.pkt_size_system.cpu0.dcache.mem_side::system.l2.cpu_side    703351744                       # Cumulative packet size per connected master and slave (bytes)
system.tol2bus.pkt_size_system.cpu1.icache.mem_side::system.l2.cpu_side      3129728                       # Cumulative packet size per connected master and slave (bytes)
system.tol2bus.pkt_size_system.cpu1.dcache.mem_side::system.l2.cpu_side    675788352                       # Cumulative packet size per connected master and slave (bytes)
system.tol2bus.pkt_size::total             1397522944                       # Cumulative packet size per connected master and slave (bytes)
system.tol2bus.snoops                        29043608                       # Total snoops (count)
system.tol2bus.snoopTraffic                  64410944                       # Total snoop traffic (bytes)
system.tol2bus.snoop_fanout::samples         39989025                       # Request fanout histogram
system.tol2bus.snoop_fanout::mean            0.234388                       # Request fanout histogram
system.tol2bus.snoop_fanout::stdev           0.449724                       # Request fanout histogram
system.tol2bus.snoop_fanout::underflows             0      0.00%      0.00% # Request fanout histogram
system.tol2bus.snoop_fanout::0               31071869     77.70%     77.70% # Request fanout histogram
system.tol2bus.snoop_fanout::1                8461507     21.16%     98.86% # Request fanout histogram
system.tol2bus.snoop_fanout::2                 455518      1.14%    100.00% # Request fanout histogram
system.tol2bus.snoop_fanout::3                    131      0.00%    100.00% # Request fanout histogram
system.tol2bus.snoop_fanout::4                      0      0.00%    100.00% # Request fanout histogram
system.tol2bus.snoop_fanout::5                      0      0.00%    100.00% # Request fanout histogram
system.tol2bus.snoop_fanout::6                      0      0.00%    100.00% # Request fanout histogram
system.tol2bus.snoop_fanout::7                      0      0.00%    100.00% # Request fanout histogram
system.tol2bus.snoop_fanout::8                      0      0.00%    100.00% # Request fanout histogram
system.tol2bus.snoop_fanout::overflows              0      0.00%    100.00% # Request fanout histogram
system.tol2bus.snoop_fanout::min_value              0                       # Request fanout histogram
system.tol2bus.snoop_fanout::max_value              3                       # Request fanout histogram
system.tol2bus.snoop_fanout::total           39989025                       # Request fanout histogram
system.tol2bus.reqLayer0.occupancy        21990258096                       # Layer occupancy (ticks)
system.tol2bus.reqLayer0.utilization             10.7                       # Layer utilization (%)
system.tol2bus.respLayer1.occupancy        8418037818                       # Layer occupancy (ticks)
system.tol2bus.respLayer1.utilization             4.1                       # Layer utilization (%)
system.tol2bus.respLayer0.occupancy         179732571                       # Layer occupancy (ticks)
system.tol2bus.respLayer0.utilization             0.1                       # Layer utilization (%)
system.tol2bus.respLayer3.occupancy        8096050724                       # Layer occupancy (ticks)
system.tol2bus.respLayer3.utilization             3.9                       # Layer utilization (%)
system.tol2bus.respLayer2.occupancy          36994363                       # Layer occupancy (ticks)
system.tol2bus.respLayer2.utilization             0.0                       # Layer utilization (%)

---------- End Simulation Statistics   ----------
