
---------- Begin Simulation Statistics ----------
final_tick                               593371762000                       # Number of ticks from beginning of simulation (restored from checkpoints and never reset)
host_inst_rate                                  80749                       # Simulator instruction rate (inst/s)
host_mem_usage                                 701376                       # Number of bytes of host memory used
host_op_rate                                    81017                       # Simulator op (including micro ops) rate (op/s)
host_seconds                                  7586.12                       # Real time elapsed on the host
host_tick_rate                               78218100                       # Simulator tick rate (ticks/s)
sim_freq                                 1000000000000                       # Frequency of simulated ticks
sim_insts                                   612568679                       # Number of instructions simulated
sim_ops                                     614606278                       # Number of ops (including micro ops) simulated
sim_seconds                                  0.593372                       # Number of seconds simulated
sim_ticks                                593371762000                       # Number of ticks simulated
system.cpu0.branchPred.BTBCorrect                   0                       # Number of correct BTB predictions (this stat may not work properly.
system.cpu0.branchPred.BTBHitPct            85.836714                       # BTB Hit Percentage
system.cpu0.branchPred.BTBHits               79315531                       # Number of BTB hits
system.cpu0.branchPred.BTBLookups            92402805                       # Number of BTB lookups
system.cpu0.branchPred.RASInCorrect                 0                       # Number of incorrect RAS predictions.
system.cpu0.branchPred.condIncorrect          9197619                       # Number of conditional branches incorrect
system.cpu0.branchPred.condPredicted        123858582                       # Number of conditional branches predicted
system.cpu0.branchPred.indirectHits          12202240                       # Number of indirect target hits.
system.cpu0.branchPred.indirectLookups       12345515                       # Number of indirect predictor lookups.
system.cpu0.branchPred.indirectMisses          143275                       # Number of indirect misses.
system.cpu0.branchPred.lookups              159480624                       # Number of BP lookups
system.cpu0.branchPred.usedRAS                      0                       # Number of times the RAS was used to get a target.
system.cpu0.branchPredindirectMispredicted      1061793                       # Number of mispredicted indirect branches.
system.cpu0.commit.amos                       1018212                       # Number of atomic instructions committed
system.cpu0.commit.branchMispredicts          6018268                       # The number of times a branch was mispredicted
system.cpu0.commit.branches                 143208773                       # Number of branches committed
system.cpu0.commit.bw_lim_events             20009357                       # number cycles where commit BW limit reached
system.cpu0.commit.commitNonSpecStalls        3058533                       # The number of times commit has been forced to stall to communicate backwards
system.cpu0.commit.commitSquashedInsts       62135901                       # The number of squashed insts skipped by commit
system.cpu0.commit.committedInsts           580303969                       # Number of instructions committed
system.cpu0.commit.committedOps             581323470                       # Number of ops (including micro ops) committed
system.cpu0.commit.committed_per_cycle::samples   1056648136                       # Number of insts commited each cycle
system.cpu0.commit.committed_per_cycle::mean     0.550158                       # Number of insts commited each cycle
system.cpu0.commit.committed_per_cycle::stdev     1.389025                       # Number of insts commited each cycle
system.cpu0.commit.committed_per_cycle::underflows            0      0.00%      0.00% # Number of insts commited each cycle
system.cpu0.commit.committed_per_cycle::0    793314877     75.08%     75.08% # Number of insts commited each cycle
system.cpu0.commit.committed_per_cycle::1    152934475     14.47%     89.55% # Number of insts commited each cycle
system.cpu0.commit.committed_per_cycle::2     38045475      3.60%     93.15% # Number of insts commited each cycle
system.cpu0.commit.committed_per_cycle::3     33430379      3.16%     96.32% # Number of insts commited each cycle
system.cpu0.commit.committed_per_cycle::4     10878761      1.03%     97.35% # Number of insts commited each cycle
system.cpu0.commit.committed_per_cycle::5      2948956      0.28%     97.63% # Number of insts commited each cycle
system.cpu0.commit.committed_per_cycle::6      1928764      0.18%     97.81% # Number of insts commited each cycle
system.cpu0.commit.committed_per_cycle::7      3157092      0.30%     98.11% # Number of insts commited each cycle
system.cpu0.commit.committed_per_cycle::8     20009357      1.89%    100.00% # Number of insts commited each cycle
system.cpu0.commit.committed_per_cycle::overflows            0      0.00%    100.00% # Number of insts commited each cycle
system.cpu0.commit.committed_per_cycle::min_value            0                       # Number of insts commited each cycle
system.cpu0.commit.committed_per_cycle::max_value            8                       # Number of insts commited each cycle
system.cpu0.commit.committed_per_cycle::total   1056648136                       # Number of insts commited each cycle
system.cpu0.commit.fp_insts                        65                       # Number of committed floating point instructions.
system.cpu0.commit.function_calls            11887530                       # Number of function calls committed.
system.cpu0.commit.int_insts                561300719                       # Number of committed integer instructions.
system.cpu0.commit.loads                    179954363                       # Number of loads committed
system.cpu0.commit.membars                    2037600                       # Number of memory barriers committed
system.cpu0.commit.op_class_0::No_OpClass      2037609      0.35%      0.35% # Class of committed instruction
system.cpu0.commit.op_class_0::IntAlu       322239592     55.43%     55.78% # Class of committed instruction
system.cpu0.commit.op_class_0::IntMult        4135846      0.71%     56.49% # Class of committed instruction
system.cpu0.commit.op_class_0::IntDiv         1017777      0.18%     56.67% # Class of committed instruction
system.cpu0.commit.op_class_0::FloatAdd             0      0.00%     56.67% # Class of committed instruction
system.cpu0.commit.op_class_0::FloatCmp             6      0.00%     56.67% # Class of committed instruction
system.cpu0.commit.op_class_0::FloatCvt            16      0.00%     56.67% # Class of committed instruction
system.cpu0.commit.op_class_0::FloatMult            0      0.00%     56.67% # Class of committed instruction
system.cpu0.commit.op_class_0::FloatMultAcc            0      0.00%     56.67% # Class of committed instruction
system.cpu0.commit.op_class_0::FloatDiv             2      0.00%     56.67% # Class of committed instruction
system.cpu0.commit.op_class_0::FloatMisc            6      0.00%     56.67% # Class of committed instruction
system.cpu0.commit.op_class_0::FloatSqrt            0      0.00%     56.67% # Class of committed instruction
system.cpu0.commit.op_class_0::SimdAdd              0      0.00%     56.67% # Class of committed instruction
system.cpu0.commit.op_class_0::SimdAddAcc            0      0.00%     56.67% # Class of committed instruction
system.cpu0.commit.op_class_0::SimdAlu              0      0.00%     56.67% # Class of committed instruction
system.cpu0.commit.op_class_0::SimdCmp              0      0.00%     56.67% # Class of committed instruction
system.cpu0.commit.op_class_0::SimdCvt              0      0.00%     56.67% # Class of committed instruction
system.cpu0.commit.op_class_0::SimdMisc             0      0.00%     56.67% # Class of committed instruction
system.cpu0.commit.op_class_0::SimdMult             0      0.00%     56.67% # Class of committed instruction
system.cpu0.commit.op_class_0::SimdMultAcc            0      0.00%     56.67% # Class of committed instruction
system.cpu0.commit.op_class_0::SimdShift            0      0.00%     56.67% # Class of committed instruction
system.cpu0.commit.op_class_0::SimdShiftAcc            0      0.00%     56.67% # Class of committed instruction
system.cpu0.commit.op_class_0::SimdDiv              0      0.00%     56.67% # Class of committed instruction
system.cpu0.commit.op_class_0::SimdSqrt             0      0.00%     56.67% # Class of committed instruction
system.cpu0.commit.op_class_0::SimdFloatAdd            0      0.00%     56.67% # Class of committed instruction
system.cpu0.commit.op_class_0::SimdFloatAlu            0      0.00%     56.67% # Class of committed instruction
system.cpu0.commit.op_class_0::SimdFloatCmp            0      0.00%     56.67% # Class of committed instruction
system.cpu0.commit.op_class_0::SimdFloatCvt            0      0.00%     56.67% # Class of committed instruction
system.cpu0.commit.op_class_0::SimdFloatDiv            0      0.00%     56.67% # Class of committed instruction
system.cpu0.commit.op_class_0::SimdFloatMisc            0      0.00%     56.67% # Class of committed instruction
system.cpu0.commit.op_class_0::SimdFloatMult            0      0.00%     56.67% # Class of committed instruction
system.cpu0.commit.op_class_0::SimdFloatMultAcc            0      0.00%     56.67% # Class of committed instruction
system.cpu0.commit.op_class_0::SimdFloatSqrt            0      0.00%     56.67% # Class of committed instruction
system.cpu0.commit.op_class_0::SimdReduceAdd            0      0.00%     56.67% # Class of committed instruction
system.cpu0.commit.op_class_0::SimdReduceAlu            0      0.00%     56.67% # Class of committed instruction
system.cpu0.commit.op_class_0::SimdReduceCmp            0      0.00%     56.67% # Class of committed instruction
system.cpu0.commit.op_class_0::SimdFloatReduceAdd            0      0.00%     56.67% # Class of committed instruction
system.cpu0.commit.op_class_0::SimdFloatReduceCmp            0      0.00%     56.67% # Class of committed instruction
system.cpu0.commit.op_class_0::SimdAes              0      0.00%     56.67% # Class of committed instruction
system.cpu0.commit.op_class_0::SimdAesMix            0      0.00%     56.67% # Class of committed instruction
system.cpu0.commit.op_class_0::SimdSha1Hash            0      0.00%     56.67% # Class of committed instruction
system.cpu0.commit.op_class_0::SimdSha1Hash2            0      0.00%     56.67% # Class of committed instruction
system.cpu0.commit.op_class_0::SimdSha256Hash            0      0.00%     56.67% # Class of committed instruction
system.cpu0.commit.op_class_0::SimdSha256Hash2            0      0.00%     56.67% # Class of committed instruction
system.cpu0.commit.op_class_0::SimdShaSigma2            0      0.00%     56.67% # Class of committed instruction
system.cpu0.commit.op_class_0::SimdShaSigma3            0      0.00%     56.67% # Class of committed instruction
system.cpu0.commit.op_class_0::SimdPredAlu            0      0.00%     56.67% # Class of committed instruction
system.cpu0.commit.op_class_0::MemRead      180972563     31.13%     87.80% # Class of committed instruction
system.cpu0.commit.op_class_0::MemWrite      70920018     12.20%    100.00% # Class of committed instruction
system.cpu0.commit.op_class_0::FloatMemRead           12      0.00%    100.00% # Class of committed instruction
system.cpu0.commit.op_class_0::FloatMemWrite           23      0.00%    100.00% # Class of committed instruction
system.cpu0.commit.op_class_0::IprAccess            0      0.00%    100.00% # Class of committed instruction
system.cpu0.commit.op_class_0::InstPrefetch            0      0.00%    100.00% # Class of committed instruction
system.cpu0.commit.op_class_0::total        581323470                       # Class of committed instruction
system.cpu0.commit.refs                     251892616                       # Number of memory references committed
system.cpu0.commit.swp_count                        0                       # Number of s/w prefetches committed
system.cpu0.commit.vec_insts                        0                       # Number of committed Vector instructions.
system.cpu0.committedInsts                  580303969                       # Number of Instructions Simulated
system.cpu0.committedOps                    581323470                       # Number of Ops (including micro ops) Simulated
system.cpu0.cpi                              2.025439                       # CPI: Cycles Per Instruction
system.cpu0.cpi_total                        2.025439                       # CPI: Total CPI of All Threads
system.cpu0.decode.BlockedCycles            197481585                       # Number of cycles decode is blocked
system.cpu0.decode.BranchMispred              3189529                       # Number of times decode detected a branch misprediction
system.cpu0.decode.BranchResolved            78433066                       # Number of times decode resolved a branch
system.cpu0.decode.DecodedInsts             656213788                       # Number of instructions handled by decode
system.cpu0.decode.IdleCycles               403433193                       # Number of cycles decode is idle
system.cpu0.decode.RunCycles                457677296                       # Number of cycles decode is running
system.cpu0.decode.SquashCycles               6026624                       # Number of cycles decode is squashing
system.cpu0.decode.SquashedInsts              8220173                       # Number of squashed instructions handled by decode
system.cpu0.decode.UnblockCycles              4032622                       # Number of cycles decode is unblocking
system.cpu0.dtb.accesses                            0                       # DTB accesses
system.cpu0.dtb.hits                                0                       # DTB hits
system.cpu0.dtb.misses                              0                       # DTB misses
system.cpu0.dtb.read_accesses                       0                       # DTB read accesses
system.cpu0.dtb.read_hits                           0                       # DTB read hits
system.cpu0.dtb.read_misses                         0                       # DTB read misses
system.cpu0.dtb.write_accesses                      0                       # DTB write accesses
system.cpu0.dtb.write_hits                          0                       # DTB write hits
system.cpu0.dtb.write_misses                        0                       # DTB write misses
system.cpu0.fetch.Branches                  159480624                       # Number of branches that fetch encountered
system.cpu0.fetch.CacheLines                116442031                       # Number of cache lines fetched
system.cpu0.fetch.Cycles                    659787621                       # Number of cycles fetch has run and was not squashing or blocked
system.cpu0.fetch.IcacheSquashes              3229050                       # Number of outstanding Icache misses that were squashed
system.cpu0.fetch.IcacheWaitRetryStallCycles          212                       # Number of stall cycles due to full MSHR
system.cpu0.fetch.Insts                     669315861                       # Number of instructions fetch has processed
system.cpu0.fetch.MiscStallCycles                  41                       # Number of cycles fetch has spent waiting on interrupts, or bad addresses, or out of MSHRs
system.cpu0.fetch.PendingTrapStallCycles          122                       # Number of stall cycles due to pending traps
system.cpu0.fetch.SquashCycles               18411986                       # Number of cycles fetch has spent squashing
system.cpu0.fetch.branchRate                 0.135685                       # Number of branch fetches per cycle
system.cpu0.fetch.icacheStallCycles         399657331                       # Number of cycles fetch is stalled on an Icache miss
system.cpu0.fetch.predictedBranches          91517771                       # Number of branches that fetch has predicted taken
system.cpu0.fetch.rate                       0.569451                       # Number of inst fetches per cycle
system.cpu0.fetch.rateDist::samples        1068651320                       # Number of instructions fetched each cycle (Total)
system.cpu0.fetch.rateDist::mean             0.627273                       # Number of instructions fetched each cycle (Total)
system.cpu0.fetch.rateDist::stdev            0.877249                       # Number of instructions fetched each cycle (Total)
system.cpu0.fetch.rateDist::underflows              0      0.00%      0.00% # Number of instructions fetched each cycle (Total)
system.cpu0.fetch.rateDist::0               587357675     54.96%     54.96% # Number of instructions fetched each cycle (Total)
system.cpu0.fetch.rateDist::1               359777728     33.67%     88.63% # Number of instructions fetched each cycle (Total)
system.cpu0.fetch.rateDist::2                73139713      6.84%     95.47% # Number of instructions fetched each cycle (Total)
system.cpu0.fetch.rateDist::3                36573740      3.42%     98.90% # Number of instructions fetched each cycle (Total)
system.cpu0.fetch.rateDist::4                 6622965      0.62%     99.52% # Number of instructions fetched each cycle (Total)
system.cpu0.fetch.rateDist::5                 4041059      0.38%     99.89% # Number of instructions fetched each cycle (Total)
system.cpu0.fetch.rateDist::6                  112417      0.01%     99.90% # Number of instructions fetched each cycle (Total)
system.cpu0.fetch.rateDist::7                 1021681      0.10%    100.00% # Number of instructions fetched each cycle (Total)
system.cpu0.fetch.rateDist::8                    4342      0.00%    100.00% # Number of instructions fetched each cycle (Total)
system.cpu0.fetch.rateDist::overflows               0      0.00%    100.00% # Number of instructions fetched each cycle (Total)
system.cpu0.fetch.rateDist::min_value               0                       # Number of instructions fetched each cycle (Total)
system.cpu0.fetch.rateDist::max_value               8                       # Number of instructions fetched each cycle (Total)
system.cpu0.fetch.rateDist::total          1068651320                       # Number of instructions fetched each cycle (Total)
system.cpu0.fp_regfile_reads                       56                       # number of floating regfile reads
system.cpu0.fp_regfile_writes                      32                       # number of floating regfile writes
system.cpu0.idleCycles                      106718690                       # Total number of cycles that the CPU has spent unscheduled due to idling
system.cpu0.iew.branchMispredicts             6094348                       # Number of branch mispredicts detected at execute
system.cpu0.iew.exec_branches               150843456                       # Number of branches executed
system.cpu0.iew.exec_nop                            0                       # number of nop insts executed
system.cpu0.iew.exec_rate                    0.541883                       # Inst execution rate
system.cpu0.iew.exec_refs                   286193043                       # number of memory reference insts executed
system.cpu0.iew.exec_stores                  79982137                       # Number of stores executed
system.cpu0.iew.exec_swp                            0                       # number of swp insts executed
system.cpu0.iew.iewBlockCycles              157218052                       # Number of cycles IEW is blocking
system.cpu0.iew.iewDispLoadInsts            205896415                       # Number of dispatched load instructions
system.cpu0.iew.iewDispNonSpecInsts           1021597                       # Number of dispatched non-speculative instructions
system.cpu0.iew.iewDispSquashedInsts          2624188                       # Number of squashed instructions skipped by dispatch
system.cpu0.iew.iewDispStoreInsts            80982799                       # Number of dispatched store instructions
system.cpu0.iew.iewDispatchedInsts          643440099                       # Number of instructions dispatched to IQ
system.cpu0.iew.iewExecLoadInsts            206210906                       # Number of load instructions executed
system.cpu0.iew.iewExecSquashedInsts          3925948                       # Number of squashed instructions skipped in execute
system.cpu0.iew.iewExecutedInsts            636912578                       # Number of executed instructions
system.cpu0.iew.iewIQFullEvents               1057653                       # Number of times the IQ has become full, causing a stall
system.cpu0.iew.iewIdleCycles                       0                       # Number of cycles IEW is idle
system.cpu0.iew.iewLSQFullEvents              3942017                       # Number of times the LSQ has become full, causing a stall
system.cpu0.iew.iewSquashCycles               6026624                       # Number of cycles IEW is squashing
system.cpu0.iew.iewUnblockCycles              6185323                       # Number of cycles IEW is unblocking
system.cpu0.iew.lsq.thread0.blockedLoads            0                       # Number of blocked loads due to partial load-store forwarding
system.cpu0.iew.lsq.thread0.cacheBlocked       107819                       # Number of times an access to memory failed due to the cache being blocked
system.cpu0.iew.lsq.thread0.forwLoads        11381626                       # Number of loads that had data forwarded from stores
system.cpu0.iew.lsq.thread0.ignoredResponses        29300                       # Number of memory responses ignored because the instruction is squashed
system.cpu0.iew.lsq.thread0.invAddrLoads            0                       # Number of loads ignored due to an invalid address
system.cpu0.iew.lsq.thread0.invAddrSwpfs            0                       # Number of software prefetches ignored due to an invalid address
system.cpu0.iew.lsq.thread0.memOrderViolation         8919                       # Number of memory ordering violations
system.cpu0.iew.lsq.thread0.rescheduledLoads      4126313                       # Number of loads that were rescheduled
system.cpu0.iew.lsq.thread0.squashedLoads     25942052                       # Number of loads squashed
system.cpu0.iew.lsq.thread0.squashedStores      9044546                       # Number of stores squashed
system.cpu0.iew.memOrderViolationEvents          8919                       # Number of memory order violations
system.cpu0.iew.predictedNotTakenIncorrect       856224                       # Number of branches that were predicted not taken incorrectly
system.cpu0.iew.predictedTakenIncorrect       5238124                       # Number of branches that were predicted taken incorrectly
system.cpu0.iew.wb_consumers                270962934                       # num instructions consuming a value
system.cpu0.iew.wb_count                    629139774                       # cumulative count of insts written-back
system.cpu0.iew.wb_fanout                    0.849725                       # average fanout of values written-back
system.cpu0.iew.wb_producers                230244003                       # num instructions producing a value
system.cpu0.iew.wb_rate                      0.535270                       # insts written-back per cycle
system.cpu0.iew.wb_sent                     629503678                       # cumulative count of insts sent to commit
system.cpu0.int_regfile_reads               775761688                       # number of integer regfile reads
system.cpu0.int_regfile_writes              403255831                       # number of integer regfile writes
system.cpu0.ipc                              0.493720                       # IPC: Instructions Per Cycle
system.cpu0.ipc_total                        0.493720                       # IPC: Total IPC of All Threads
system.cpu0.iq.FU_type_0::No_OpClass          2038484      0.32%      0.32% # Type of FU issued
system.cpu0.iq.FU_type_0::IntAlu            346193478     54.02%     54.34% # Type of FU issued
system.cpu0.iq.FU_type_0::IntMult             4139925      0.65%     54.99% # Type of FU issued
system.cpu0.iq.FU_type_0::IntDiv              1018080      0.16%     55.14% # Type of FU issued
system.cpu0.iq.FU_type_0::FloatAdd                  0      0.00%     55.14% # Type of FU issued
system.cpu0.iq.FU_type_0::FloatCmp                  6      0.00%     55.14% # Type of FU issued
system.cpu0.iq.FU_type_0::FloatCvt                 16      0.00%     55.14% # Type of FU issued
system.cpu0.iq.FU_type_0::FloatMult                 0      0.00%     55.14% # Type of FU issued
system.cpu0.iq.FU_type_0::FloatMultAcc              0      0.00%     55.14% # Type of FU issued
system.cpu0.iq.FU_type_0::FloatDiv                  2      0.00%     55.14% # Type of FU issued
system.cpu0.iq.FU_type_0::FloatMisc                 6      0.00%     55.14% # Type of FU issued
system.cpu0.iq.FU_type_0::FloatSqrt                 0      0.00%     55.14% # Type of FU issued
system.cpu0.iq.FU_type_0::SimdAdd                   0      0.00%     55.14% # Type of FU issued
system.cpu0.iq.FU_type_0::SimdAddAcc                0      0.00%     55.14% # Type of FU issued
system.cpu0.iq.FU_type_0::SimdAlu                   0      0.00%     55.14% # Type of FU issued
system.cpu0.iq.FU_type_0::SimdCmp                   0      0.00%     55.14% # Type of FU issued
system.cpu0.iq.FU_type_0::SimdCvt                   0      0.00%     55.14% # Type of FU issued
system.cpu0.iq.FU_type_0::SimdMisc                  0      0.00%     55.14% # Type of FU issued
system.cpu0.iq.FU_type_0::SimdMult                  0      0.00%     55.14% # Type of FU issued
system.cpu0.iq.FU_type_0::SimdMultAcc               0      0.00%     55.14% # Type of FU issued
system.cpu0.iq.FU_type_0::SimdShift                 0      0.00%     55.14% # Type of FU issued
system.cpu0.iq.FU_type_0::SimdShiftAcc              0      0.00%     55.14% # Type of FU issued
system.cpu0.iq.FU_type_0::SimdDiv                   0      0.00%     55.14% # Type of FU issued
system.cpu0.iq.FU_type_0::SimdSqrt                  0      0.00%     55.14% # Type of FU issued
system.cpu0.iq.FU_type_0::SimdFloatAdd              0      0.00%     55.14% # Type of FU issued
system.cpu0.iq.FU_type_0::SimdFloatAlu              0      0.00%     55.14% # Type of FU issued
system.cpu0.iq.FU_type_0::SimdFloatCmp              0      0.00%     55.14% # Type of FU issued
system.cpu0.iq.FU_type_0::SimdFloatCvt              0      0.00%     55.14% # Type of FU issued
system.cpu0.iq.FU_type_0::SimdFloatDiv              0      0.00%     55.14% # Type of FU issued
system.cpu0.iq.FU_type_0::SimdFloatMisc             0      0.00%     55.14% # Type of FU issued
system.cpu0.iq.FU_type_0::SimdFloatMult             0      0.00%     55.14% # Type of FU issued
system.cpu0.iq.FU_type_0::SimdFloatMultAcc            0      0.00%     55.14% # Type of FU issued
system.cpu0.iq.FU_type_0::SimdFloatSqrt             0      0.00%     55.14% # Type of FU issued
system.cpu0.iq.FU_type_0::SimdReduceAdd             0      0.00%     55.14% # Type of FU issued
system.cpu0.iq.FU_type_0::SimdReduceAlu             0      0.00%     55.14% # Type of FU issued
system.cpu0.iq.FU_type_0::SimdReduceCmp             0      0.00%     55.14% # Type of FU issued
system.cpu0.iq.FU_type_0::SimdFloatReduceAdd            0      0.00%     55.14% # Type of FU issued
system.cpu0.iq.FU_type_0::SimdFloatReduceCmp            0      0.00%     55.14% # Type of FU issued
system.cpu0.iq.FU_type_0::SimdAes                   0      0.00%     55.14% # Type of FU issued
system.cpu0.iq.FU_type_0::SimdAesMix                0      0.00%     55.14% # Type of FU issued
system.cpu0.iq.FU_type_0::SimdSha1Hash              0      0.00%     55.14% # Type of FU issued
system.cpu0.iq.FU_type_0::SimdSha1Hash2             0      0.00%     55.14% # Type of FU issued
system.cpu0.iq.FU_type_0::SimdSha256Hash            0      0.00%     55.14% # Type of FU issued
system.cpu0.iq.FU_type_0::SimdSha256Hash2            0      0.00%     55.14% # Type of FU issued
system.cpu0.iq.FU_type_0::SimdShaSigma2             0      0.00%     55.14% # Type of FU issued
system.cpu0.iq.FU_type_0::SimdShaSigma3             0      0.00%     55.14% # Type of FU issued
system.cpu0.iq.FU_type_0::SimdPredAlu               0      0.00%     55.14% # Type of FU issued
system.cpu0.iq.FU_type_0::MemRead           208255571     32.50%     87.64% # Type of FU issued
system.cpu0.iq.FU_type_0::MemWrite           79192920     12.36%    100.00% # Type of FU issued
system.cpu0.iq.FU_type_0::FloatMemRead             16      0.00%    100.00% # Type of FU issued
system.cpu0.iq.FU_type_0::FloatMemWrite            23      0.00%    100.00% # Type of FU issued
system.cpu0.iq.FU_type_0::IprAccess                 0      0.00%    100.00% # Type of FU issued
system.cpu0.iq.FU_type_0::InstPrefetch              0      0.00%    100.00% # Type of FU issued
system.cpu0.iq.FU_type_0::total             640838527                       # Type of FU issued
system.cpu0.iq.fp_alu_accesses                     72                       # Number of floating point alu accesses
system.cpu0.iq.fp_inst_queue_reads                141                       # Number of floating instruction queue reads
system.cpu0.iq.fp_inst_queue_wakeup_accesses           66                       # Number of floating instruction queue wakeup accesses
system.cpu0.iq.fp_inst_queue_writes                73                       # Number of floating instruction queue writes
system.cpu0.iq.fu_busy_cnt                    1418767                       # FU busy when requested
system.cpu0.iq.fu_busy_rate                  0.002214                       # FU busy rate (busy events/executed inst)
system.cpu0.iq.fu_full::No_OpClass                  0      0.00%      0.00% # attempts to use FU when none available
system.cpu0.iq.fu_full::IntAlu                 286348     20.18%     20.18% # attempts to use FU when none available
system.cpu0.iq.fu_full::IntMult                     0      0.00%     20.18% # attempts to use FU when none available
system.cpu0.iq.fu_full::IntDiv                      0      0.00%     20.18% # attempts to use FU when none available
system.cpu0.iq.fu_full::FloatAdd                    0      0.00%     20.18% # attempts to use FU when none available
system.cpu0.iq.fu_full::FloatCmp                    0      0.00%     20.18% # attempts to use FU when none available
system.cpu0.iq.fu_full::FloatCvt                    0      0.00%     20.18% # attempts to use FU when none available
system.cpu0.iq.fu_full::FloatMult                   0      0.00%     20.18% # attempts to use FU when none available
system.cpu0.iq.fu_full::FloatMultAcc                0      0.00%     20.18% # attempts to use FU when none available
system.cpu0.iq.fu_full::FloatDiv                    0      0.00%     20.18% # attempts to use FU when none available
system.cpu0.iq.fu_full::FloatMisc                   0      0.00%     20.18% # attempts to use FU when none available
system.cpu0.iq.fu_full::FloatSqrt                   0      0.00%     20.18% # attempts to use FU when none available
system.cpu0.iq.fu_full::SimdAdd                     0      0.00%     20.18% # attempts to use FU when none available
system.cpu0.iq.fu_full::SimdAddAcc                  0      0.00%     20.18% # attempts to use FU when none available
system.cpu0.iq.fu_full::SimdAlu                     0      0.00%     20.18% # attempts to use FU when none available
system.cpu0.iq.fu_full::SimdCmp                     0      0.00%     20.18% # attempts to use FU when none available
system.cpu0.iq.fu_full::SimdCvt                     0      0.00%     20.18% # attempts to use FU when none available
system.cpu0.iq.fu_full::SimdMisc                    0      0.00%     20.18% # attempts to use FU when none available
system.cpu0.iq.fu_full::SimdMult                    0      0.00%     20.18% # attempts to use FU when none available
system.cpu0.iq.fu_full::SimdMultAcc                 0      0.00%     20.18% # attempts to use FU when none available
system.cpu0.iq.fu_full::SimdShift                   0      0.00%     20.18% # attempts to use FU when none available
system.cpu0.iq.fu_full::SimdShiftAcc                0      0.00%     20.18% # attempts to use FU when none available
system.cpu0.iq.fu_full::SimdDiv                     0      0.00%     20.18% # attempts to use FU when none available
system.cpu0.iq.fu_full::SimdSqrt                    0      0.00%     20.18% # attempts to use FU when none available
system.cpu0.iq.fu_full::SimdFloatAdd                0      0.00%     20.18% # attempts to use FU when none available
system.cpu0.iq.fu_full::SimdFloatAlu                0      0.00%     20.18% # attempts to use FU when none available
system.cpu0.iq.fu_full::SimdFloatCmp                0      0.00%     20.18% # attempts to use FU when none available
system.cpu0.iq.fu_full::SimdFloatCvt                0      0.00%     20.18% # attempts to use FU when none available
system.cpu0.iq.fu_full::SimdFloatDiv                0      0.00%     20.18% # attempts to use FU when none available
system.cpu0.iq.fu_full::SimdFloatMisc               0      0.00%     20.18% # attempts to use FU when none available
system.cpu0.iq.fu_full::SimdFloatMult               0      0.00%     20.18% # attempts to use FU when none available
system.cpu0.iq.fu_full::SimdFloatMultAcc            0      0.00%     20.18% # attempts to use FU when none available
system.cpu0.iq.fu_full::SimdFloatSqrt               0      0.00%     20.18% # attempts to use FU when none available
system.cpu0.iq.fu_full::SimdReduceAdd               0      0.00%     20.18% # attempts to use FU when none available
system.cpu0.iq.fu_full::SimdReduceAlu               0      0.00%     20.18% # attempts to use FU when none available
system.cpu0.iq.fu_full::SimdReduceCmp               0      0.00%     20.18% # attempts to use FU when none available
system.cpu0.iq.fu_full::SimdFloatReduceAdd            0      0.00%     20.18% # attempts to use FU when none available
system.cpu0.iq.fu_full::SimdFloatReduceCmp            0      0.00%     20.18% # attempts to use FU when none available
system.cpu0.iq.fu_full::SimdAes                     0      0.00%     20.18% # attempts to use FU when none available
system.cpu0.iq.fu_full::SimdAesMix                  0      0.00%     20.18% # attempts to use FU when none available
system.cpu0.iq.fu_full::SimdSha1Hash                0      0.00%     20.18% # attempts to use FU when none available
system.cpu0.iq.fu_full::SimdSha1Hash2               0      0.00%     20.18% # attempts to use FU when none available
system.cpu0.iq.fu_full::SimdSha256Hash              0      0.00%     20.18% # attempts to use FU when none available
system.cpu0.iq.fu_full::SimdSha256Hash2             0      0.00%     20.18% # attempts to use FU when none available
system.cpu0.iq.fu_full::SimdShaSigma2               0      0.00%     20.18% # attempts to use FU when none available
system.cpu0.iq.fu_full::SimdShaSigma3               0      0.00%     20.18% # attempts to use FU when none available
system.cpu0.iq.fu_full::SimdPredAlu                 0      0.00%     20.18% # attempts to use FU when none available
system.cpu0.iq.fu_full::MemRead                960046     67.67%     87.85% # attempts to use FU when none available
system.cpu0.iq.fu_full::MemWrite               172370     12.15%    100.00% # attempts to use FU when none available
system.cpu0.iq.fu_full::FloatMemRead                0      0.00%    100.00% # attempts to use FU when none available
system.cpu0.iq.fu_full::FloatMemWrite               3      0.00%    100.00% # attempts to use FU when none available
system.cpu0.iq.fu_full::IprAccess                   0      0.00%    100.00% # attempts to use FU when none available
system.cpu0.iq.fu_full::InstPrefetch                0      0.00%    100.00% # attempts to use FU when none available
system.cpu0.iq.int_alu_accesses             640218738                       # Number of integer alu accesses
system.cpu0.iq.int_inst_queue_reads        2351843849                       # Number of integer instruction queue reads
system.cpu0.iq.int_inst_queue_wakeup_accesses    629139708                       # Number of integer instruction queue wakeup accesses
system.cpu0.iq.int_inst_queue_writes        705564533                       # Number of integer instruction queue writes
system.cpu0.iq.iqInstsAdded                 640380715                       # Number of instructions added to the IQ (excludes non-spec)
system.cpu0.iq.iqInstsIssued                640838527                       # Number of instructions issued
system.cpu0.iq.iqNonSpecInstsAdded            3059384                       # Number of non-speculative instructions added to the IQ
system.cpu0.iq.iqSquashedInstsExamined       62116625                       # Number of squashed instructions iterated over during squash; mainly for profiling
system.cpu0.iq.iqSquashedInstsIssued            96850                       # Number of squashed instructions issued
system.cpu0.iq.iqSquashedNonSpecRemoved           851                       # Number of squashed non-spec instructions that were removed
system.cpu0.iq.iqSquashedOperandsExamined     14079814                       # Number of squashed operands that are examined and possibly removed from graph
system.cpu0.iq.issued_per_cycle::samples   1068651320                       # Number of insts issued each cycle
system.cpu0.iq.issued_per_cycle::mean        0.599670                       # Number of insts issued each cycle
system.cpu0.iq.issued_per_cycle::stdev       0.822619                       # Number of insts issued each cycle
system.cpu0.iq.issued_per_cycle::underflows            0      0.00%      0.00% # Number of insts issued each cycle
system.cpu0.iq.issued_per_cycle::0          607622699     56.86%     56.86% # Number of insts issued each cycle
system.cpu0.iq.issued_per_cycle::1          319383083     29.89%     86.75% # Number of insts issued each cycle
system.cpu0.iq.issued_per_cycle::2          113978957     10.67%     97.41% # Number of insts issued each cycle
system.cpu0.iq.issued_per_cycle::3           20602542      1.93%     99.34% # Number of insts issued each cycle
system.cpu0.iq.issued_per_cycle::4            4637056      0.43%     99.77% # Number of insts issued each cycle
system.cpu0.iq.issued_per_cycle::5            1725791      0.16%     99.93% # Number of insts issued each cycle
system.cpu0.iq.issued_per_cycle::6             483342      0.05%     99.98% # Number of insts issued each cycle
system.cpu0.iq.issued_per_cycle::7             130127      0.01%     99.99% # Number of insts issued each cycle
system.cpu0.iq.issued_per_cycle::8              87723      0.01%    100.00% # Number of insts issued each cycle
system.cpu0.iq.issued_per_cycle::overflows            0      0.00%    100.00% # Number of insts issued each cycle
system.cpu0.iq.issued_per_cycle::min_value            0                       # Number of insts issued each cycle
system.cpu0.iq.issued_per_cycle::max_value            8                       # Number of insts issued each cycle
system.cpu0.iq.issued_per_cycle::total     1068651320                       # Number of insts issued each cycle
system.cpu0.iq.rate                          0.545223                       # Inst issue rate
system.cpu0.iq.vec_alu_accesses                     0                       # Number of vector alu accesses
system.cpu0.iq.vec_inst_queue_reads                 0                       # Number of vector instruction queue reads
system.cpu0.iq.vec_inst_queue_wakeup_accesses            0                       # Number of vector instruction queue wakeup accesses
system.cpu0.iq.vec_inst_queue_writes                0                       # Number of vector instruction queue writes
system.cpu0.itb.accesses                            0                       # DTB accesses
system.cpu0.itb.hits                                0                       # DTB hits
system.cpu0.itb.misses                              0                       # DTB misses
system.cpu0.itb.read_accesses                       0                       # DTB read accesses
system.cpu0.itb.read_hits                           0                       # DTB read hits
system.cpu0.itb.read_misses                         0                       # DTB read misses
system.cpu0.itb.write_accesses                      0                       # DTB write accesses
system.cpu0.itb.write_hits                          0                       # DTB write hits
system.cpu0.itb.write_misses                        0                       # DTB write misses
system.cpu0.memDep0.conflictingLoads          9780517                       # Number of conflicting loads.
system.cpu0.memDep0.conflictingStores         2059380                       # Number of conflicting stores.
system.cpu0.memDep0.insertedLoads           205896415                       # Number of loads inserted to the mem dependence unit.
system.cpu0.memDep0.insertedStores           80982799                       # Number of stores inserted to the mem dependence unit.
system.cpu0.misc_regfile_reads                    897                       # number of misc regfile reads
system.cpu0.misc_regfile_writes                    30                       # number of misc regfile writes
system.cpu0.numCycles                      1175370010                       # number of cpu cycles simulated
system.cpu0.numWorkItemsCompleted                   0                       # number of work items this cpu completed
system.cpu0.numWorkItemsStarted                     0                       # number of work items this cpu started
system.cpu0.quiesceCycles                    11374241                       # Total number of cycles that CPU has spent quiesced or waiting for an interrupt
system.cpu0.rename.BlockCycles              170924023                       # Number of cycles rename is blocking
system.cpu0.rename.CommittedMaps            370579298                       # Number of HB maps that are committed
system.cpu0.rename.IQFullEvents               6596374                       # Number of times rename has blocked due to IQ full
system.cpu0.rename.IdleCycles               409828416                       # Number of cycles rename is idle
system.cpu0.rename.LQFullEvents               9163024                       # Number of times rename has blocked due to LQ full
system.cpu0.rename.ROBFullEvents                13628                       # Number of times rename has blocked due to ROB full
system.cpu0.rename.RenameLookups            794773158                       # Number of register rename lookups that rename has made
system.cpu0.rename.RenamedInsts             651893057                       # Number of instructions processed by rename
system.cpu0.rename.RenamedOperands          419738131                       # Number of destination operands rename has renamed
system.cpu0.rename.RunCycles                454736195                       # Number of cycles rename is running
system.cpu0.rename.SQFullEvents              10962466                       # Number of times rename has blocked due to SQ full
system.cpu0.rename.SquashCycles               6026624                       # Number of cycles rename is squashing
system.cpu0.rename.UnblockCycles             26961645                       # Number of cycles rename is unblocking
system.cpu0.rename.UndoneMaps                49158828                       # Number of HB maps that are undone due to squashing
system.cpu0.rename.fp_rename_lookups               56                       # Number of floating rename lookups
system.cpu0.rename.int_rename_lookups       794773102                       # Number of integer rename lookups
system.cpu0.rename.serializeStallCycles        174417                       # count of cycles rename stalled for serializing inst
system.cpu0.rename.serializingInsts              2873                       # count of serializing insts renamed
system.cpu0.rename.skidInsts                 14822228                       # count of insts added to the skid buffer
system.cpu0.rename.tempSerializingInsts          2871                       # count of temporary serializing insts renamed
system.cpu0.rob.rob_reads                  1680087165                       # The number of ROB reads
system.cpu0.rob.rob_writes                 1298935685                       # The number of ROB writes
system.cpu0.timesIdled                       12278596                       # Number of times that the entire CPU went into an idle state and unscheduled itself
system.cpu0.workload.numSyscalls                  853                       # Number of system calls
system.cpu1.branchPred.BTBCorrect                   0                       # Number of correct BTB predictions (this stat may not work properly.
system.cpu1.branchPred.BTBHitPct            74.584471                       # BTB Hit Percentage
system.cpu1.branchPred.BTBHits                4577384                       # Number of BTB hits
system.cpu1.branchPred.BTBLookups             6137181                       # Number of BTB lookups
system.cpu1.branchPred.RASInCorrect                 0                       # Number of incorrect RAS predictions.
system.cpu1.branchPred.condIncorrect           771963                       # Number of conditional branches incorrect
system.cpu1.branchPred.condPredicted          7901908                       # Number of conditional branches predicted
system.cpu1.branchPred.indirectHits            269488                       # Number of indirect target hits.
system.cpu1.branchPred.indirectLookups         401888                       # Number of indirect predictor lookups.
system.cpu1.branchPred.indirectMisses          132400                       # Number of indirect misses.
system.cpu1.branchPred.lookups                8891749                       # Number of BP lookups
system.cpu1.branchPred.usedRAS                      0                       # Number of times the RAS was used to get a target.
system.cpu1.branchPredindirectMispredicted         3198                       # Number of mispredicted indirect branches.
system.cpu1.commit.amos                       1017927                       # Number of atomic instructions committed
system.cpu1.commit.branchMispredicts           461357                       # The number of times a branch was mispredicted
system.cpu1.commit.branches                   7095867                       # Number of branches committed
system.cpu1.commit.bw_lim_events               856574                       # number cycles where commit BW limit reached
system.cpu1.commit.commitNonSpecStalls        3054437                       # The number of times commit has been forced to stall to communicate backwards
system.cpu1.commit.commitSquashedInsts        4712925                       # The number of squashed insts skipped by commit
system.cpu1.commit.committedInsts            32264710                       # Number of instructions committed
system.cpu1.commit.committedOps              33282808                       # Number of ops (including micro ops) committed
system.cpu1.commit.committed_per_cycle::samples    197557674                       # Number of insts commited each cycle
system.cpu1.commit.committed_per_cycle::mean     0.168471                       # Number of insts commited each cycle
system.cpu1.commit.committed_per_cycle::stdev     0.821079                       # Number of insts commited each cycle
system.cpu1.commit.committed_per_cycle::underflows            0      0.00%      0.00% # Number of insts commited each cycle
system.cpu1.commit.committed_per_cycle::0    183899783     93.09%     93.09% # Number of insts commited each cycle
system.cpu1.commit.committed_per_cycle::1      6860969      3.47%     96.56% # Number of insts commited each cycle
system.cpu1.commit.committed_per_cycle::2      2251712      1.14%     97.70% # Number of insts commited each cycle
system.cpu1.commit.committed_per_cycle::3      1981807      1.00%     98.70% # Number of insts commited each cycle
system.cpu1.commit.committed_per_cycle::4       507751      0.26%     98.96% # Number of insts commited each cycle
system.cpu1.commit.committed_per_cycle::5       172539      0.09%     99.05% # Number of insts commited each cycle
system.cpu1.commit.committed_per_cycle::6       959070      0.49%     99.53% # Number of insts commited each cycle
system.cpu1.commit.committed_per_cycle::7        67469      0.03%     99.57% # Number of insts commited each cycle
system.cpu1.commit.committed_per_cycle::8       856574      0.43%    100.00% # Number of insts commited each cycle
system.cpu1.commit.committed_per_cycle::overflows            0      0.00%    100.00% # Number of insts commited each cycle
system.cpu1.commit.committed_per_cycle::min_value            0                       # Number of insts commited each cycle
system.cpu1.commit.committed_per_cycle::max_value            8                       # Number of insts commited each cycle
system.cpu1.commit.committed_per_cycle::total    197557674                       # Number of insts commited each cycle
system.cpu1.commit.fp_insts                        12                       # Number of committed floating point instructions.
system.cpu1.commit.function_calls              320852                       # Number of function calls committed.
system.cpu1.commit.int_insts                 31049483                       # Number of committed integer instructions.
system.cpu1.commit.loads                      9248907                       # Number of loads committed
system.cpu1.commit.membars                    2035970                       # Number of memory barriers committed
system.cpu1.commit.op_class_0::No_OpClass      2035970      6.12%      6.12% # Class of committed instruction
system.cpu1.commit.op_class_0::IntAlu        19083739     57.34%     63.46% # Class of committed instruction
system.cpu1.commit.op_class_0::IntMult             42      0.00%     63.46% # Class of committed instruction
system.cpu1.commit.op_class_0::IntDiv              84      0.00%     63.46% # Class of committed instruction
system.cpu1.commit.op_class_0::FloatAdd             0      0.00%     63.46% # Class of committed instruction
system.cpu1.commit.op_class_0::FloatCmp             0      0.00%     63.46% # Class of committed instruction
system.cpu1.commit.op_class_0::FloatCvt             0      0.00%     63.46% # Class of committed instruction
system.cpu1.commit.op_class_0::FloatMult            0      0.00%     63.46% # Class of committed instruction
system.cpu1.commit.op_class_0::FloatMultAcc            0      0.00%     63.46% # Class of committed instruction
system.cpu1.commit.op_class_0::FloatDiv             0      0.00%     63.46% # Class of committed instruction
system.cpu1.commit.op_class_0::FloatMisc            0      0.00%     63.46% # Class of committed instruction
system.cpu1.commit.op_class_0::FloatSqrt            0      0.00%     63.46% # Class of committed instruction
system.cpu1.commit.op_class_0::SimdAdd              0      0.00%     63.46% # Class of committed instruction
system.cpu1.commit.op_class_0::SimdAddAcc            0      0.00%     63.46% # Class of committed instruction
system.cpu1.commit.op_class_0::SimdAlu              0      0.00%     63.46% # Class of committed instruction
system.cpu1.commit.op_class_0::SimdCmp              0      0.00%     63.46% # Class of committed instruction
system.cpu1.commit.op_class_0::SimdCvt              0      0.00%     63.46% # Class of committed instruction
system.cpu1.commit.op_class_0::SimdMisc             0      0.00%     63.46% # Class of committed instruction
system.cpu1.commit.op_class_0::SimdMult             0      0.00%     63.46% # Class of committed instruction
system.cpu1.commit.op_class_0::SimdMultAcc            0      0.00%     63.46% # Class of committed instruction
system.cpu1.commit.op_class_0::SimdShift            0      0.00%     63.46% # Class of committed instruction
system.cpu1.commit.op_class_0::SimdShiftAcc            0      0.00%     63.46% # Class of committed instruction
system.cpu1.commit.op_class_0::SimdDiv              0      0.00%     63.46% # Class of committed instruction
system.cpu1.commit.op_class_0::SimdSqrt             0      0.00%     63.46% # Class of committed instruction
system.cpu1.commit.op_class_0::SimdFloatAdd            0      0.00%     63.46% # Class of committed instruction
system.cpu1.commit.op_class_0::SimdFloatAlu            0      0.00%     63.46% # Class of committed instruction
system.cpu1.commit.op_class_0::SimdFloatCmp            0      0.00%     63.46% # Class of committed instruction
system.cpu1.commit.op_class_0::SimdFloatCvt            0      0.00%     63.46% # Class of committed instruction
system.cpu1.commit.op_class_0::SimdFloatDiv            0      0.00%     63.46% # Class of committed instruction
system.cpu1.commit.op_class_0::SimdFloatMisc            0      0.00%     63.46% # Class of committed instruction
system.cpu1.commit.op_class_0::SimdFloatMult            0      0.00%     63.46% # Class of committed instruction
system.cpu1.commit.op_class_0::SimdFloatMultAcc            0      0.00%     63.46% # Class of committed instruction
system.cpu1.commit.op_class_0::SimdFloatSqrt            0      0.00%     63.46% # Class of committed instruction
system.cpu1.commit.op_class_0::SimdReduceAdd            0      0.00%     63.46% # Class of committed instruction
system.cpu1.commit.op_class_0::SimdReduceAlu            0      0.00%     63.46% # Class of committed instruction
system.cpu1.commit.op_class_0::SimdReduceCmp            0      0.00%     63.46% # Class of committed instruction
system.cpu1.commit.op_class_0::SimdFloatReduceAdd            0      0.00%     63.46% # Class of committed instruction
system.cpu1.commit.op_class_0::SimdFloatReduceCmp            0      0.00%     63.46% # Class of committed instruction
system.cpu1.commit.op_class_0::SimdAes              0      0.00%     63.46% # Class of committed instruction
system.cpu1.commit.op_class_0::SimdAesMix            0      0.00%     63.46% # Class of committed instruction
system.cpu1.commit.op_class_0::SimdSha1Hash            0      0.00%     63.46% # Class of committed instruction
system.cpu1.commit.op_class_0::SimdSha1Hash2            0      0.00%     63.46% # Class of committed instruction
system.cpu1.commit.op_class_0::SimdSha256Hash            0      0.00%     63.46% # Class of committed instruction
system.cpu1.commit.op_class_0::SimdSha256Hash2            0      0.00%     63.46% # Class of committed instruction
system.cpu1.commit.op_class_0::SimdShaSigma2            0      0.00%     63.46% # Class of committed instruction
system.cpu1.commit.op_class_0::SimdShaSigma3            0      0.00%     63.46% # Class of committed instruction
system.cpu1.commit.op_class_0::SimdPredAlu            0      0.00%     63.46% # Class of committed instruction
system.cpu1.commit.op_class_0::MemRead       10266834     30.85%     94.30% # Class of committed instruction
system.cpu1.commit.op_class_0::MemWrite       1896127      5.70%    100.00% # Class of committed instruction
system.cpu1.commit.op_class_0::FloatMemRead            0      0.00%    100.00% # Class of committed instruction
system.cpu1.commit.op_class_0::FloatMemWrite           12      0.00%    100.00% # Class of committed instruction
system.cpu1.commit.op_class_0::IprAccess            0      0.00%    100.00% # Class of committed instruction
system.cpu1.commit.op_class_0::InstPrefetch            0      0.00%    100.00% # Class of committed instruction
system.cpu1.commit.op_class_0::total         33282808                       # Class of committed instruction
system.cpu1.commit.refs                      12162973                       # Number of memory references committed
system.cpu1.commit.swp_count                        0                       # Number of s/w prefetches committed
system.cpu1.commit.vec_insts                        0                       # Number of committed Vector instructions.
system.cpu1.committedInsts                   32264710                       # Number of Instructions Simulated
system.cpu1.committedOps                     33282808                       # Number of Ops (including micro ops) Simulated
system.cpu1.cpi                              6.159426                       # CPI: Cycles Per Instruction
system.cpu1.cpi_total                        6.159426                       # CPI: Total CPI of All Threads
system.cpu1.decode.BlockedCycles            177921746                       # Number of cycles decode is blocked
system.cpu1.decode.BranchMispred               312571                       # Number of times decode detected a branch misprediction
system.cpu1.decode.BranchResolved             4393219                       # Number of times decode resolved a branch
system.cpu1.decode.DecodedInsts              40065692                       # Number of instructions handled by decode
system.cpu1.decode.IdleCycles                 5283086                       # Number of cycles decode is idle
system.cpu1.decode.RunCycles                 12428193                       # Number of cycles decode is running
system.cpu1.decode.SquashCycles                461570                       # Number of cycles decode is squashing
system.cpu1.decode.SquashedInsts               567361                       # Number of squashed instructions handled by decode
system.cpu1.decode.UnblockCycles              2339008                       # Number of cycles decode is unblocking
system.cpu1.dtb.accesses                            0                       # DTB accesses
system.cpu1.dtb.hits                                0                       # DTB hits
system.cpu1.dtb.misses                              0                       # DTB misses
system.cpu1.dtb.read_accesses                       0                       # DTB read accesses
system.cpu1.dtb.read_hits                           0                       # DTB read hits
system.cpu1.dtb.read_misses                         0                       # DTB read misses
system.cpu1.dtb.write_accesses                      0                       # DTB write accesses
system.cpu1.dtb.write_hits                          0                       # DTB write hits
system.cpu1.dtb.write_misses                        0                       # DTB write misses
system.cpu1.fetch.Branches                    8891749                       # Number of branches that fetch encountered
system.cpu1.fetch.CacheLines                  4989123                       # Number of cache lines fetched
system.cpu1.fetch.Cycles                    192204145                       # Number of cycles fetch has run and was not squashing or blocked
system.cpu1.fetch.IcacheSquashes                54700                       # Number of outstanding Icache misses that were squashed
system.cpu1.fetch.IcacheWaitRetryStallCycles           12                       # Number of stall cycles due to full MSHR
system.cpu1.fetch.Insts                      40917851                       # Number of instructions fetch has processed
system.cpu1.fetch.MiscStallCycles                   2                       # Number of cycles fetch has spent waiting on interrupts, or bad addresses, or out of MSHRs
system.cpu1.fetch.SquashCycles                1544352                       # Number of cycles fetch has spent squashing
system.cpu1.fetch.branchRate                 0.044742                       # Number of branch fetches per cycle
system.cpu1.fetch.icacheStallCycles           5457268                       # Number of cycles fetch is stalled on an Icache miss
system.cpu1.fetch.predictedBranches           4846872                       # Number of branches that fetch has predicted taken
system.cpu1.fetch.rate                       0.205895                       # Number of inst fetches per cycle
system.cpu1.fetch.rateDist::samples         198433603                       # Number of instructions fetched each cycle (Total)
system.cpu1.fetch.rateDist::mean             0.211337                       # Number of instructions fetched each cycle (Total)
system.cpu1.fetch.rateDist::stdev            0.649425                       # Number of instructions fetched each cycle (Total)
system.cpu1.fetch.rateDist::underflows              0      0.00%      0.00% # Number of instructions fetched each cycle (Total)
system.cpu1.fetch.rateDist::0               173138730     87.25%     87.25% # Number of instructions fetched each cycle (Total)
system.cpu1.fetch.rateDist::1                14875350      7.50%     94.75% # Number of instructions fetched each cycle (Total)
system.cpu1.fetch.rateDist::2                 6085074      3.07%     97.82% # Number of instructions fetched each cycle (Total)
system.cpu1.fetch.rateDist::3                 2923924      1.47%     99.29% # Number of instructions fetched each cycle (Total)
system.cpu1.fetch.rateDist::4                 1013702      0.51%     99.80% # Number of instructions fetched each cycle (Total)
system.cpu1.fetch.rateDist::5                  317080      0.16%     99.96% # Number of instructions fetched each cycle (Total)
system.cpu1.fetch.rateDist::6                   79540      0.04%    100.00% # Number of instructions fetched each cycle (Total)
system.cpu1.fetch.rateDist::7                      63      0.00%    100.00% # Number of instructions fetched each cycle (Total)
system.cpu1.fetch.rateDist::8                     140      0.00%    100.00% # Number of instructions fetched each cycle (Total)
system.cpu1.fetch.rateDist::overflows               0      0.00%    100.00% # Number of instructions fetched each cycle (Total)
system.cpu1.fetch.rateDist::min_value               0                       # Number of instructions fetched each cycle (Total)
system.cpu1.fetch.rateDist::max_value               8                       # Number of instructions fetched each cycle (Total)
system.cpu1.fetch.rateDist::total           198433603                       # Number of instructions fetched each cycle (Total)
system.cpu1.fp_regfile_reads                       12                       # number of floating regfile reads
system.cpu1.idleCycles                         298490                       # Total number of cycles that the CPU has spent unscheduled due to idling
system.cpu1.iew.branchMispredicts              495999                       # Number of branch mispredicts detected at execute
system.cpu1.iew.exec_branches                 7759053                       # Number of branches executed
system.cpu1.iew.exec_nop                            0                       # number of nop insts executed
system.cpu1.iew.exec_rate                    0.184151                       # Inst execution rate
system.cpu1.iew.exec_refs                    13089804                       # number of memory reference insts executed
system.cpu1.iew.exec_stores                   2944667                       # Number of stores executed
system.cpu1.iew.exec_swp                            0                       # number of swp insts executed
system.cpu1.iew.iewBlockCycles              152173936                       # Number of cycles IEW is blocking
system.cpu1.iew.iewDispLoadInsts             10143497                       # Number of dispatched load instructions
system.cpu1.iew.iewDispNonSpecInsts           1018636                       # Number of dispatched non-speculative instructions
system.cpu1.iew.iewDispSquashedInsts           587899                       # Number of squashed instructions skipped by dispatch
system.cpu1.iew.iewDispStoreInsts             2980725                       # Number of dispatched store instructions
system.cpu1.iew.iewDispatchedInsts           37987895                       # Number of instructions dispatched to IQ
system.cpu1.iew.iewExecLoadInsts             10145137                       # Number of load instructions executed
system.cpu1.iew.iewExecSquashedInsts           577873                       # Number of squashed instructions skipped in execute
system.cpu1.iew.iewExecutedInsts             36596764                       # Number of executed instructions
system.cpu1.iew.iewIQFullEvents                756357                       # Number of times the IQ has become full, causing a stall
system.cpu1.iew.iewIdleCycles                       0                       # Number of cycles IEW is idle
system.cpu1.iew.iewLSQFullEvents              1716893                       # Number of times the LSQ has become full, causing a stall
system.cpu1.iew.iewSquashCycles                461570                       # Number of cycles IEW is squashing
system.cpu1.iew.iewUnblockCycles              3672335                       # Number of cycles IEW is unblocking
system.cpu1.iew.lsq.thread0.blockedLoads            0                       # Number of blocked loads due to partial load-store forwarding
system.cpu1.iew.lsq.thread0.cacheBlocked        32952                       # Number of times an access to memory failed due to the cache being blocked
system.cpu1.iew.lsq.thread0.forwLoads          163033                       # Number of loads that had data forwarded from stores
system.cpu1.iew.lsq.thread0.ignoredResponses         5062                       # Number of memory responses ignored because the instruction is squashed
system.cpu1.iew.lsq.thread0.invAddrLoads            0                       # Number of loads ignored due to an invalid address
system.cpu1.iew.lsq.thread0.invAddrSwpfs            0                       # Number of software prefetches ignored due to an invalid address
system.cpu1.iew.lsq.thread0.memOrderViolation          164                       # Number of memory ordering violations
system.cpu1.iew.lsq.thread0.rescheduledLoads          396                       # Number of loads that were rescheduled
system.cpu1.iew.lsq.thread0.squashedLoads       894590                       # Number of loads squashed
system.cpu1.iew.lsq.thread0.squashedStores        66659                       # Number of stores squashed
system.cpu1.iew.memOrderViolationEvents           164                       # Number of memory order violations
system.cpu1.iew.predictedNotTakenIncorrect        93512                       # Number of branches that were predicted not taken incorrectly
system.cpu1.iew.predictedTakenIncorrect        402487                       # Number of branches that were predicted taken incorrectly
system.cpu1.iew.wb_consumers                 21653294                       # num instructions consuming a value
system.cpu1.iew.wb_count                     36230719                       # cumulative count of insts written-back
system.cpu1.iew.wb_fanout                    0.859656                       # average fanout of values written-back
system.cpu1.iew.wb_producers                 18614379                       # num instructions producing a value
system.cpu1.iew.wb_rate                      0.182309                       # insts written-back per cycle
system.cpu1.iew.wb_sent                      36240417                       # cumulative count of insts sent to commit
system.cpu1.int_regfile_reads                44957942                       # number of integer regfile reads
system.cpu1.int_regfile_writes               24716163                       # number of integer regfile writes
system.cpu1.ipc                              0.162353                       # IPC: Instructions Per Cycle
system.cpu1.ipc_total                        0.162353                       # IPC: Total IPC of All Threads
system.cpu1.iq.FU_type_0::No_OpClass          2036079      5.48%      5.48% # Type of FU issued
system.cpu1.iq.FU_type_0::IntAlu             21974410     59.11%     64.59% # Type of FU issued
system.cpu1.iq.FU_type_0::IntMult                  45      0.00%     64.59% # Type of FU issued
system.cpu1.iq.FU_type_0::IntDiv                   86      0.00%     64.59% # Type of FU issued
system.cpu1.iq.FU_type_0::FloatAdd                  0      0.00%     64.59% # Type of FU issued
system.cpu1.iq.FU_type_0::FloatCmp                  0      0.00%     64.59% # Type of FU issued
system.cpu1.iq.FU_type_0::FloatCvt                  0      0.00%     64.59% # Type of FU issued
system.cpu1.iq.FU_type_0::FloatMult                 0      0.00%     64.59% # Type of FU issued
system.cpu1.iq.FU_type_0::FloatMultAcc              0      0.00%     64.59% # Type of FU issued
system.cpu1.iq.FU_type_0::FloatDiv                  0      0.00%     64.59% # Type of FU issued
system.cpu1.iq.FU_type_0::FloatMisc                 0      0.00%     64.59% # Type of FU issued
system.cpu1.iq.FU_type_0::FloatSqrt                 0      0.00%     64.59% # Type of FU issued
system.cpu1.iq.FU_type_0::SimdAdd                   0      0.00%     64.59% # Type of FU issued
system.cpu1.iq.FU_type_0::SimdAddAcc                0      0.00%     64.59% # Type of FU issued
system.cpu1.iq.FU_type_0::SimdAlu                   0      0.00%     64.59% # Type of FU issued
system.cpu1.iq.FU_type_0::SimdCmp                   0      0.00%     64.59% # Type of FU issued
system.cpu1.iq.FU_type_0::SimdCvt                   0      0.00%     64.59% # Type of FU issued
system.cpu1.iq.FU_type_0::SimdMisc                  0      0.00%     64.59% # Type of FU issued
system.cpu1.iq.FU_type_0::SimdMult                  0      0.00%     64.59% # Type of FU issued
system.cpu1.iq.FU_type_0::SimdMultAcc               0      0.00%     64.59% # Type of FU issued
system.cpu1.iq.FU_type_0::SimdShift                 0      0.00%     64.59% # Type of FU issued
system.cpu1.iq.FU_type_0::SimdShiftAcc              0      0.00%     64.59% # Type of FU issued
system.cpu1.iq.FU_type_0::SimdDiv                   0      0.00%     64.59% # Type of FU issued
system.cpu1.iq.FU_type_0::SimdSqrt                  0      0.00%     64.59% # Type of FU issued
system.cpu1.iq.FU_type_0::SimdFloatAdd              0      0.00%     64.59% # Type of FU issued
system.cpu1.iq.FU_type_0::SimdFloatAlu              0      0.00%     64.59% # Type of FU issued
system.cpu1.iq.FU_type_0::SimdFloatCmp              0      0.00%     64.59% # Type of FU issued
system.cpu1.iq.FU_type_0::SimdFloatCvt              0      0.00%     64.59% # Type of FU issued
system.cpu1.iq.FU_type_0::SimdFloatDiv              0      0.00%     64.59% # Type of FU issued
system.cpu1.iq.FU_type_0::SimdFloatMisc             0      0.00%     64.59% # Type of FU issued
system.cpu1.iq.FU_type_0::SimdFloatMult             0      0.00%     64.59% # Type of FU issued
system.cpu1.iq.FU_type_0::SimdFloatMultAcc            0      0.00%     64.59% # Type of FU issued
system.cpu1.iq.FU_type_0::SimdFloatSqrt             0      0.00%     64.59% # Type of FU issued
system.cpu1.iq.FU_type_0::SimdReduceAdd             0      0.00%     64.59% # Type of FU issued
system.cpu1.iq.FU_type_0::SimdReduceAlu             0      0.00%     64.59% # Type of FU issued
system.cpu1.iq.FU_type_0::SimdReduceCmp             0      0.00%     64.59% # Type of FU issued
system.cpu1.iq.FU_type_0::SimdFloatReduceAdd            0      0.00%     64.59% # Type of FU issued
system.cpu1.iq.FU_type_0::SimdFloatReduceCmp            0      0.00%     64.59% # Type of FU issued
system.cpu1.iq.FU_type_0::SimdAes                   0      0.00%     64.59% # Type of FU issued
system.cpu1.iq.FU_type_0::SimdAesMix                0      0.00%     64.59% # Type of FU issued
system.cpu1.iq.FU_type_0::SimdSha1Hash              0      0.00%     64.59% # Type of FU issued
system.cpu1.iq.FU_type_0::SimdSha1Hash2             0      0.00%     64.59% # Type of FU issued
system.cpu1.iq.FU_type_0::SimdSha256Hash            0      0.00%     64.59% # Type of FU issued
system.cpu1.iq.FU_type_0::SimdSha256Hash2            0      0.00%     64.59% # Type of FU issued
system.cpu1.iq.FU_type_0::SimdShaSigma2             0      0.00%     64.59% # Type of FU issued
system.cpu1.iq.FU_type_0::SimdShaSigma3             0      0.00%     64.59% # Type of FU issued
system.cpu1.iq.FU_type_0::SimdPredAlu               0      0.00%     64.59% # Type of FU issued
system.cpu1.iq.FU_type_0::MemRead            11228813     30.21%     94.79% # Type of FU issued
system.cpu1.iq.FU_type_0::MemWrite            1935192      5.21%    100.00% # Type of FU issued
system.cpu1.iq.FU_type_0::FloatMemRead              0      0.00%    100.00% # Type of FU issued
system.cpu1.iq.FU_type_0::FloatMemWrite            12      0.00%    100.00% # Type of FU issued
system.cpu1.iq.FU_type_0::IprAccess                 0      0.00%    100.00% # Type of FU issued
system.cpu1.iq.FU_type_0::InstPrefetch              0      0.00%    100.00% # Type of FU issued
system.cpu1.iq.FU_type_0::total              37174637                       # Type of FU issued
system.cpu1.iq.fp_alu_accesses                     15                       # Number of floating point alu accesses
system.cpu1.iq.fp_inst_queue_reads                 27                       # Number of floating instruction queue reads
system.cpu1.iq.fp_inst_queue_wakeup_accesses           12                       # Number of floating instruction queue wakeup accesses
system.cpu1.iq.fp_inst_queue_writes                12                       # Number of floating instruction queue writes
system.cpu1.iq.fu_busy_cnt                    1168383                       # FU busy when requested
system.cpu1.iq.fu_busy_rate                  0.031430                       # FU busy rate (busy events/executed inst)
system.cpu1.iq.fu_full::No_OpClass                  0      0.00%      0.00% # attempts to use FU when none available
system.cpu1.iq.fu_full::IntAlu                 244670     20.94%     20.94% # attempts to use FU when none available
system.cpu1.iq.fu_full::IntMult                     0      0.00%     20.94% # attempts to use FU when none available
system.cpu1.iq.fu_full::IntDiv                      0      0.00%     20.94% # attempts to use FU when none available
system.cpu1.iq.fu_full::FloatAdd                    0      0.00%     20.94% # attempts to use FU when none available
system.cpu1.iq.fu_full::FloatCmp                    0      0.00%     20.94% # attempts to use FU when none available
system.cpu1.iq.fu_full::FloatCvt                    0      0.00%     20.94% # attempts to use FU when none available
system.cpu1.iq.fu_full::FloatMult                   0      0.00%     20.94% # attempts to use FU when none available
system.cpu1.iq.fu_full::FloatMultAcc                0      0.00%     20.94% # attempts to use FU when none available
system.cpu1.iq.fu_full::FloatDiv                    0      0.00%     20.94% # attempts to use FU when none available
system.cpu1.iq.fu_full::FloatMisc                   0      0.00%     20.94% # attempts to use FU when none available
system.cpu1.iq.fu_full::FloatSqrt                   0      0.00%     20.94% # attempts to use FU when none available
system.cpu1.iq.fu_full::SimdAdd                     0      0.00%     20.94% # attempts to use FU when none available
system.cpu1.iq.fu_full::SimdAddAcc                  0      0.00%     20.94% # attempts to use FU when none available
system.cpu1.iq.fu_full::SimdAlu                     0      0.00%     20.94% # attempts to use FU when none available
system.cpu1.iq.fu_full::SimdCmp                     0      0.00%     20.94% # attempts to use FU when none available
system.cpu1.iq.fu_full::SimdCvt                     0      0.00%     20.94% # attempts to use FU when none available
system.cpu1.iq.fu_full::SimdMisc                    0      0.00%     20.94% # attempts to use FU when none available
system.cpu1.iq.fu_full::SimdMult                    0      0.00%     20.94% # attempts to use FU when none available
system.cpu1.iq.fu_full::SimdMultAcc                 0      0.00%     20.94% # attempts to use FU when none available
system.cpu1.iq.fu_full::SimdShift                   0      0.00%     20.94% # attempts to use FU when none available
system.cpu1.iq.fu_full::SimdShiftAcc                0      0.00%     20.94% # attempts to use FU when none available
system.cpu1.iq.fu_full::SimdDiv                     0      0.00%     20.94% # attempts to use FU when none available
system.cpu1.iq.fu_full::SimdSqrt                    0      0.00%     20.94% # attempts to use FU when none available
system.cpu1.iq.fu_full::SimdFloatAdd                0      0.00%     20.94% # attempts to use FU when none available
system.cpu1.iq.fu_full::SimdFloatAlu                0      0.00%     20.94% # attempts to use FU when none available
system.cpu1.iq.fu_full::SimdFloatCmp                0      0.00%     20.94% # attempts to use FU when none available
system.cpu1.iq.fu_full::SimdFloatCvt                0      0.00%     20.94% # attempts to use FU when none available
system.cpu1.iq.fu_full::SimdFloatDiv                0      0.00%     20.94% # attempts to use FU when none available
system.cpu1.iq.fu_full::SimdFloatMisc               0      0.00%     20.94% # attempts to use FU when none available
system.cpu1.iq.fu_full::SimdFloatMult               0      0.00%     20.94% # attempts to use FU when none available
system.cpu1.iq.fu_full::SimdFloatMultAcc            0      0.00%     20.94% # attempts to use FU when none available
system.cpu1.iq.fu_full::SimdFloatSqrt               0      0.00%     20.94% # attempts to use FU when none available
system.cpu1.iq.fu_full::SimdReduceAdd               0      0.00%     20.94% # attempts to use FU when none available
system.cpu1.iq.fu_full::SimdReduceAlu               0      0.00%     20.94% # attempts to use FU when none available
system.cpu1.iq.fu_full::SimdReduceCmp               0      0.00%     20.94% # attempts to use FU when none available
system.cpu1.iq.fu_full::SimdFloatReduceAdd            0      0.00%     20.94% # attempts to use FU when none available
system.cpu1.iq.fu_full::SimdFloatReduceCmp            0      0.00%     20.94% # attempts to use FU when none available
system.cpu1.iq.fu_full::SimdAes                     0      0.00%     20.94% # attempts to use FU when none available
system.cpu1.iq.fu_full::SimdAesMix                  0      0.00%     20.94% # attempts to use FU when none available
system.cpu1.iq.fu_full::SimdSha1Hash                0      0.00%     20.94% # attempts to use FU when none available
system.cpu1.iq.fu_full::SimdSha1Hash2               0      0.00%     20.94% # attempts to use FU when none available
system.cpu1.iq.fu_full::SimdSha256Hash              0      0.00%     20.94% # attempts to use FU when none available
system.cpu1.iq.fu_full::SimdSha256Hash2             0      0.00%     20.94% # attempts to use FU when none available
system.cpu1.iq.fu_full::SimdShaSigma2               0      0.00%     20.94% # attempts to use FU when none available
system.cpu1.iq.fu_full::SimdShaSigma3               0      0.00%     20.94% # attempts to use FU when none available
system.cpu1.iq.fu_full::SimdPredAlu                 0      0.00%     20.94% # attempts to use FU when none available
system.cpu1.iq.fu_full::MemRead                816687     69.90%     90.84% # attempts to use FU when none available
[...]
system.cpu1.dcache.ReadReq_avg_miss_latency::total 74272.256105                       # average ReadReq miss latency
system.cpu1.dcache.ReadReq_mshr_hits::.cpu1.data     86702315                       # number of ReadReq MSHR hits
system.cpu1.dcache.ReadReq_mshr_hits::total     86702315                       # number of ReadReq MSHR hits
system.cpu1.dcache.ReadReq_mshr_misses::.cpu1.data     68226714                       # number of ReadReq MSHR misses
system.cpu1.dcache.ReadReq_mshr_misses::total     68226714                       # number of ReadReq MSHR misses
system.cpu1.dcache.ReadReq_mshr_miss_latency::.cpu1.data 6002129027500                       # number of ReadReq MSHR miss cycles
system.cpu1.dcache.ReadReq_mshr_miss_latency::total 6002129027500                       # number of ReadReq MSHR miss cycles
system.cpu1.dcache.ReadReq_mshr_miss_rate::.cpu1.data     0.244311                       # mshr miss rate for ReadReq accesses
system.cpu1.dcache.ReadReq_mshr_miss_rate::total     0.244311                       # mshr miss rate for ReadReq accesses
system.cpu1.dcache.ReadReq_avg_mshr_miss_latency::.cpu1.data 87973.297783                       # average ReadReq mshr miss latency
system.cpu1.dcache.ReadReq_avg_mshr_miss_latency::total 87973.297783                       # average ReadReq mshr miss latency
system.cpu1.dcache.WriteReq_hits::.cpu1.data     17829187                       # number of WriteReq hits
system.cpu1.dcache.WriteReq_hits::total      17829187                       # number of WriteReq hits
system.cpu1.dcache.WriteReq_misses::.cpu1.data      7419669                       # number of WriteReq misses
system.cpu1.dcache.WriteReq_misses::total      7419669                       # number of WriteReq misses
system.cpu1.dcache.WriteReq_miss_latency::.cpu1.data 293624316789                       # number of WriteReq miss cycles
system.cpu1.dcache.WriteReq_miss_latency::total 293624316789                       # number of WriteReq miss cycles
system.cpu1.dcache.WriteReq_accesses::.cpu1.data     25248856                       # number of WriteReq accesses(hits+misses)
system.cpu1.dcache.WriteReq_accesses::total     25248856                       # number of WriteReq accesses(hits+misses)
system.cpu1.dcache.WriteReq_miss_rate::.cpu1.data     0.293862                       # miss rate for WriteReq accesses
system.cpu1.dcache.WriteReq_miss_rate::total     0.293862                       # miss rate for WriteReq accesses
system.cpu1.dcache.WriteReq_avg_miss_latency::.cpu1.data 39573.775702                       # average WriteReq miss latency
system.cpu1.dcache.WriteReq_avg_miss_latency::total 39573.775702                       # average WriteReq miss latency
system.cpu1.dcache.WriteReq_mshr_hits::.cpu1.data      6101812                       # number of WriteReq MSHR hits
system.cpu1.dcache.WriteReq_mshr_hits::total      6101812                       # number of WriteReq MSHR hits
system.cpu1.dcache.WriteReq_mshr_misses::.cpu1.data      1317857                       # number of WriteReq MSHR misses
system.cpu1.dcache.WriteReq_mshr_misses::total      1317857                       # number of WriteReq MSHR misses
system.cpu1.dcache.WriteReq_mshr_miss_latency::.cpu1.data  94235338179                       # number of WriteReq MSHR miss cycles
system.cpu1.dcache.WriteReq_mshr_miss_latency::total  94235338179                       # number of WriteReq MSHR miss cycles
system.cpu1.dcache.WriteReq_mshr_miss_rate::.cpu1.data     0.052195                       # mshr miss rate for WriteReq accesses
system.cpu1.dcache.WriteReq_mshr_miss_rate::total     0.052195                       # mshr miss rate for WriteReq accesses
system.cpu1.dcache.WriteReq_avg_mshr_miss_latency::.cpu1.data 71506.497427                       # average WriteReq mshr miss latency
system.cpu1.dcache.WriteReq_avg_mshr_miss_latency::total 71506.497427                       # average WriteReq mshr miss latency
system.cpu1.dcache.LoadLockedReq_hits::.cpu1.data         6399                       # number of LoadLockedReq hits
system.cpu1.dcache.LoadLockedReq_hits::total         6399                       # number of LoadLockedReq hits
system.cpu1.dcache.LoadLockedReq_misses::.cpu1.data         1560                       # number of LoadLockedReq misses
system.cpu1.dcache.LoadLockedReq_misses::total         1560                       # number of LoadLockedReq misses
system.cpu1.dcache.LoadLockedReq_miss_latency::.cpu1.data     57107500                       # number of LoadLockedReq miss cycles
system.cpu1.dcache.LoadLockedReq_miss_latency::total     57107500                       # number of LoadLockedReq miss cycles
system.cpu1.dcache.LoadLockedReq_accesses::.cpu1.data         7959                       # number of LoadLockedReq accesses(hits+misses)
system.cpu1.dcache.LoadLockedReq_accesses::total         7959                       # number of LoadLockedReq accesses(hits+misses)
system.cpu1.dcache.LoadLockedReq_miss_rate::.cpu1.data     0.196005                       # miss rate for LoadLockedReq accesses
system.cpu1.dcache.LoadLockedReq_miss_rate::total     0.196005                       # miss rate for LoadLockedReq accesses
system.cpu1.dcache.LoadLockedReq_avg_miss_latency::.cpu1.data 36607.371795                       # average LoadLockedReq miss latency
system.cpu1.dcache.LoadLockedReq_avg_miss_latency::total 36607.371795                       # average LoadLockedReq miss latency
system.cpu1.dcache.LoadLockedReq_mshr_hits::.cpu1.data         1284                       # number of LoadLockedReq MSHR hits
system.cpu1.dcache.LoadLockedReq_mshr_hits::total         1284                       # number of LoadLockedReq MSHR hits
system.cpu1.dcache.LoadLockedReq_mshr_misses::.cpu1.data          276                       # number of LoadLockedReq MSHR misses
system.cpu1.dcache.LoadLockedReq_mshr_misses::total          276                       # number of LoadLockedReq MSHR misses
system.cpu1.dcache.LoadLockedReq_mshr_miss_latency::.cpu1.data      2299500                       # number of LoadLockedReq MSHR miss cycles
system.cpu1.dcache.LoadLockedReq_mshr_miss_latency::total      2299500                       # number of LoadLockedReq MSHR miss cycles
system.cpu1.dcache.LoadLockedReq_mshr_miss_rate::.cpu1.data     0.034678                       # mshr miss rate for LoadLockedReq accesses
system.cpu1.dcache.LoadLockedReq_mshr_miss_rate::total     0.034678                       # mshr miss rate for LoadLockedReq accesses
system.cpu1.dcache.LoadLockedReq_avg_mshr_miss_latency::.cpu1.data  8331.521739                       # average LoadLockedReq mshr miss latency
system.cpu1.dcache.LoadLockedReq_avg_mshr_miss_latency::total  8331.521739                       # average LoadLockedReq mshr miss latency
system.cpu1.dcache.StoreCondReq_hits::.cpu1.data         4306                       # number of StoreCondReq hits
system.cpu1.dcache.StoreCondReq_hits::total         4306                       # number of StoreCondReq hits
system.cpu1.dcache.StoreCondReq_misses::.cpu1.data         2944                       # number of StoreCondReq misses
system.cpu1.dcache.StoreCondReq_misses::total         2944                       # number of StoreCondReq misses
system.cpu1.dcache.StoreCondReq_miss_latency::.cpu1.data     16913500                       # number of StoreCondReq miss cycles
system.cpu1.dcache.StoreCondReq_miss_latency::total     16913500                       # number of StoreCondReq miss cycles
system.cpu1.dcache.StoreCondReq_accesses::.cpu1.data         7250                       # number of StoreCondReq accesses(hits+misses)
system.cpu1.dcache.StoreCondReq_accesses::total         7250                       # number of StoreCondReq accesses(hits+misses)
system.cpu1.dcache.StoreCondReq_miss_rate::.cpu1.data     0.406069                       # miss rate for StoreCondReq accesses
system.cpu1.dcache.StoreCondReq_miss_rate::total     0.406069                       # miss rate for StoreCondReq accesses
system.cpu1.dcache.StoreCondReq_avg_miss_latency::.cpu1.data  5745.074728                       # average StoreCondReq miss latency
system.cpu1.dcache.StoreCondReq_avg_miss_latency::total  5745.074728                       # average StoreCondReq miss latency
system.cpu1.dcache.StoreCondReq_mshr_misses::.cpu1.data         2944                       # number of StoreCondReq MSHR misses
system.cpu1.dcache.StoreCondReq_mshr_misses::total         2944                       # number of StoreCondReq MSHR misses
system.cpu1.dcache.StoreCondReq_mshr_miss_latency::.cpu1.data     13969500                       # number of StoreCondReq MSHR miss cycles
system.cpu1.dcache.StoreCondReq_mshr_miss_latency::total     13969500                       # number of StoreCondReq MSHR miss cycles
system.cpu1.dcache.StoreCondReq_mshr_miss_rate::.cpu1.data     0.406069                       # mshr miss rate for StoreCondReq accesses
system.cpu1.dcache.StoreCondReq_mshr_miss_rate::total     0.406069                       # mshr miss rate for StoreCondReq accesses
system.cpu1.dcache.StoreCondReq_avg_mshr_miss_latency::.cpu1.data  4745.074728                       # average StoreCondReq mshr miss latency
system.cpu1.dcache.StoreCondReq_avg_mshr_miss_latency::total  4745.074728                       # average StoreCondReq mshr miss latency
system.cpu1.dcache.SwapReq_hits::.cpu1.data         3945                       # number of SwapReq hits
system.cpu1.dcache.SwapReq_hits::total           3945                       # number of SwapReq hits
system.cpu1.dcache.SwapReq_misses::.cpu1.data       190296                       # number of SwapReq misses
system.cpu1.dcache.SwapReq_misses::total       190296                       # number of SwapReq misses
system.cpu1.dcache.SwapReq_miss_latency::.cpu1.data   5348488500                       # number of SwapReq miss cycles
system.cpu1.dcache.SwapReq_miss_latency::total   5348488500                       # number of SwapReq miss cycles
system.cpu1.dcache.SwapReq_accesses::.cpu1.data       194241                       # number of SwapReq accesses(hits+misses)
system.cpu1.dcache.SwapReq_accesses::total       194241                       # number of SwapReq accesses(hits+misses)
system.cpu1.dcache.SwapReq_miss_rate::.cpu1.data     0.979690                       # miss rate for SwapReq accesses
system.cpu1.dcache.SwapReq_miss_rate::total     0.979690                       # miss rate for SwapReq accesses
system.cpu1.dcache.SwapReq_avg_miss_latency::.cpu1.data 28106.153046                       # average SwapReq miss latency
system.cpu1.dcache.SwapReq_avg_miss_latency::total 28106.153046                       # average SwapReq miss latency
system.cpu1.dcache.SwapReq_mshr_misses::.cpu1.data       190296                       # number of SwapReq MSHR misses
system.cpu1.dcache.SwapReq_mshr_misses::total       190296                       # number of SwapReq MSHR misses
system.cpu1.dcache.SwapReq_mshr_miss_latency::.cpu1.data   5158192500                       # number of SwapReq MSHR miss cycles
system.cpu1.dcache.SwapReq_mshr_miss_latency::total   5158192500                       # number of SwapReq MSHR miss cycles
system.cpu1.dcache.SwapReq_mshr_miss_rate::.cpu1.data     0.979690                       # mshr miss rate for SwapReq accesses
system.cpu1.dcache.SwapReq_mshr_miss_rate::total     0.979690                       # mshr miss rate for SwapReq accesses
system.cpu1.dcache.SwapReq_avg_mshr_miss_latency::.cpu1.data 27106.153046                       # average SwapReq mshr miss latency
system.cpu1.dcache.SwapReq_avg_mshr_miss_latency::total 27106.153046                       # average SwapReq mshr miss latency
system.cpu1.dcache.tags.pwrStateResidencyTicks::UNDEFINED 1843999795500                       # Cumulative time (in ticks) in various power states
system.cpu1.dcache.tags.tagsinuse           31.914229                       # Cycle average of tags in use
system.cpu1.dcache.tags.total_refs          212074993                       # Total number of references to valid blocks.
system.cpu1.dcache.tags.sampled_refs         69599952                       # Sample count of references to valid blocks.
system.cpu1.dcache.tags.avg_refs             3.047057                       # Average number of references to valid blocks.
system.cpu1.dcache.tags.warmup_cycle                0                       # Cycle when the warmup percentage was hit.
system.cpu1.dcache.tags.occ_blocks::.cpu1.data    31.914229                       # Average occupied blocks per requestor
system.cpu1.dcache.tags.occ_percent::.cpu1.data     0.997320                       # Average percentage of cache occupancy
system.cpu1.dcache.tags.occ_percent::total     0.997320                       # Average percentage of cache occupancy
system.cpu1.dcache.tags.occ_task_id_blocks::1024           25                       # Occupied blocks per task id
system.cpu1.dcache.tags.age_task_id_blocks_1024::1           25                       # Occupied blocks per task id
system.cpu1.dcache.tags.occ_task_id_percent::1024     0.781250                       # Percentage of cache occupancy per task id
system.cpu1.dcache.tags.tag_accesses        679039216                       # Number of tag accesses
system.cpu1.dcache.tags.data_accesses       679039216                       # Number of data accesses
system.cpu_clk_domain.clock                       500                       # Clock period in ticks
system.tol2bus.pwrStateResidencyTicks::UNDEFINED 1843999795500                       # Cumulative time (in ticks) in various power states
system.tol2bus.trans_dist::ReadResp         136793766                       # Transaction distribution
system.tol2bus.trans_dist::WritebackDirty      9536135                       # Transaction distribution
system.tol2bus.trans_dist::WritebackClean    133738434                       # Transaction distribution
system.tol2bus.trans_dist::CleanEvict       282747500                       # Transaction distribution
system.tol2bus.trans_dist::HardPFReq        109214522                       # Transaction distribution
system.tol2bus.trans_dist::HardPFResp             278                       # Transaction distribution
system.tol2bus.trans_dist::UpgradeReq          331013                       # Transaction distribution
system.tol2bus.trans_dist::SCUpgradeReq          5227                       # Transaction distribution
system.tol2bus.trans_dist::UpgradeResp         336240                       # Transaction distribution
system.tol2bus.trans_dist::SCUpgradeFailReq            5                       # Transaction distribution
system.tol2bus.trans_dist::UpgradeFailResp            5                       # Transaction distribution
system.tol2bus.trans_dist::ReadExReq          2810760                       # Transaction distribution
system.tol2bus.trans_dist::ReadExResp         2810760                       # Transaction distribution
system.tol2bus.trans_dist::ReadCleanReq        190199                       # Transaction distribution
system.tol2bus.trans_dist::ReadSharedReq    136603568                       # Transaction distribution
system.tol2bus.pkt_count_system.cpu0.icache.mem_side::system.l2.cpu_side       456250                       # Packet count per connected master and slave (bytes)
system.tol2bus.pkt_count_system.cpu0.dcache.mem_side::system.l2.cpu_side    209150215                       # Packet count per connected master and slave (bytes)
system.tol2bus.pkt_count_system.cpu1.icache.mem_side::system.l2.cpu_side       114345                       # Packet count per connected master and slave (bytes)
system.tol2bus.pkt_count_system.cpu1.dcache.mem_side::system.l2.cpu_side    208503238                       # Packet count per connected master and slave (bytes)
system.tol2bus.pkt_count::total             418224048                       # Packet count per connected master and slave (bytes)
system.tol2bus.pkt_size_system.cpu0.icache.mem_side::system.l2.cpu_side     19466624                       # Cumulative packet size per connected master and slave (bytes)
system.tol2bus.pkt_size_system.cpu0.dcache.mem_side::system.l2.cpu_side   8903440704                       # Cumulative packet size per connected master and slave (bytes)
system.tol2bus.pkt_size_system.cpu1.icache.mem_side::system.l2.cpu_side      4878720                       # Cumulative packet size per connected master and slave (bytes)
system.tol2bus.pkt_size_system.cpu1.dcache.mem_side::system.l2.cpu_side   8875858432                       # Cumulative packet size per connected master and slave (bytes)
system.tol2bus.pkt_size::total            17803644480                       # Cumulative packet size per connected master and slave (bytes)
system.tol2bus.snoops                       396894642                       # Total snoops (count)
system.tol2bus.snoopTraffic                 300653504                       # Total snoop traffic (bytes)
system.tol2bus.snoop_fanout::samples        536272396                       # Request fanout histogram
system.tol2bus.snoop_fanout::mean            0.247615                       # Request fanout histogram
system.tol2bus.snoop_fanout::stdev           0.449777                       # Request fanout histogram
system.tol2bus.snoop_fanout::underflows             0      0.00%      0.00% # Request fanout histogram
system.tol2bus.snoop_fanout::0              407772716     76.04%     76.04% # Request fanout histogram
system.tol2bus.snoop_fanout::1              124210195     23.16%     99.20% # Request fanout histogram
system.tol2bus.snoop_fanout::2                4289485      0.80%    100.00% # Request fanout histogram
system.tol2bus.snoop_fanout::3                      0      0.00%    100.00% # Request fanout histogram
system.tol2bus.snoop_fanout::4                      0      0.00%    100.00% # Request fanout histogram
system.tol2bus.snoop_fanout::5                      0      0.00%    100.00% # Request fanout histogram
system.tol2bus.snoop_fanout::6                      0      0.00%    100.00% # Request fanout histogram
system.tol2bus.snoop_fanout::7                      0      0.00%    100.00% # Request fanout histogram
system.tol2bus.snoop_fanout::8                      0      0.00%    100.00% # Request fanout histogram
system.tol2bus.snoop_fanout::overflows              0      0.00%    100.00% # Request fanout histogram
system.tol2bus.snoop_fanout::min_value              0                       # Request fanout histogram
system.tol2bus.snoop_fanout::max_value              2                       # Request fanout histogram
system.tol2bus.snoop_fanout::total          536272396                       # Request fanout histogram
system.tol2bus.reqLayer0.occupancy       278996094872                       # Layer occupancy (ticks)
system.tol2bus.reqLayer0.utilization             15.1                       # Layer utilization (%)
system.tol2bus.respLayer1.occupancy      104996737073                       # Layer occupancy (ticks)
system.tol2bus.respLayer1.utilization             5.7                       # Layer utilization (%)
system.tol2bus.respLayer0.occupancy         228338571                       # Layer occupancy (ticks)
system.tol2bus.respLayer0.utilization             0.0                       # Layer utilization (%)
system.tol2bus.respLayer3.occupancy      104676284050                       # Layer occupancy (ticks)
system.tol2bus.respLayer3.utilization             5.7                       # Layer utilization (%)
system.tol2bus.respLayer2.occupancy          57352639                       # Layer occupancy (ticks)
system.tol2bus.respLayer2.utilization             0.0                       # Layer utilization (%)
system.tol2bus.snoopLayer0.occupancy           417213                       # Layer occupancy (ticks)
system.tol2bus.snoopLayer0.utilization            0.0                       # Layer utilization (%)

---------- End Simulation Statistics   ----------
