
---------- Begin Simulation Statistics ----------
<<<<<<< HEAD
final_tick                               492105972500                       # Number of ticks from beginning of simulation (restored from checkpoints and never reset)
host_inst_rate                                  94885                       # Simulator instruction rate (inst/s)
host_mem_usage                                 739336                       # Number of bytes of host memory used
host_op_rate                                    95201                       # Simulator op (including micro ops) rate (op/s)
host_seconds                                  6464.50                       # Real time elapsed on the host
host_tick_rate                               76124369                       # Simulator tick rate (ticks/s)
sim_freq                                 1000000000000                       # Frequency of simulated ticks
sim_insts                                   613386313                       # Number of instructions simulated
sim_ops                                     615425076                       # Number of ops (including micro ops) simulated
sim_seconds                                  0.492106                       # Number of seconds simulated
sim_ticks                                492105972500                       # Number of ticks simulated
system.cpu0.branchPred.BTBCorrect                   0                       # Number of correct BTB predictions (this stat may not work properly.
system.cpu0.branchPred.BTBHitPct            86.628051                       # BTB Hit Percentage
system.cpu0.branchPred.BTBHits               77579322                       # Number of BTB hits
system.cpu0.branchPred.BTBLookups            89554505                       # Number of BTB lookups
system.cpu0.branchPred.RASInCorrect                 0                       # Number of incorrect RAS predictions.
system.cpu0.branchPred.condIncorrect          8666072                       # Number of conditional branches incorrect
system.cpu0.branchPred.condPredicted        120352957                       # Number of conditional branches predicted
system.cpu0.branchPred.indirectHits          11653289                       # Number of indirect target hits.
system.cpu0.branchPred.indirectLookups       11815467                       # Number of indirect predictor lookups.
system.cpu0.branchPred.indirectMisses          162178                       # Number of indirect misses.
system.cpu0.branchPred.lookups              156052779                       # Number of BP lookups
system.cpu0.branchPred.usedRAS                      0                       # Number of times the RAS was used to get a target.
system.cpu0.branchPredindirectMispredicted      1052984                       # Number of mispredicted indirect branches.
system.cpu0.commit.amos                        509394                       # Number of atomic instructions committed
system.cpu0.commit.branchMispredicts          5656798                       # The number of times a branch was mispredicted
system.cpu0.commit.branches                 138963370                       # Number of branches committed
system.cpu0.commit.bw_lim_events             17243919                       # number cycles where commit BW limit reached
system.cpu0.commit.commitNonSpecStalls        1532344                       # The number of times commit has been forced to stall to communicate backwards
system.cpu0.commit.commitSquashedInsts       57278527                       # The number of squashed insts skipped by commit
system.cpu0.commit.committedInsts           561776348                       # Number of instructions committed
system.cpu0.commit.committedOps             562287010                       # Number of ops (including micro ops) committed
system.cpu0.commit.committed_per_cycle::samples    891539319                       # Number of insts commited each cycle
system.cpu0.commit.committed_per_cycle::mean     0.630692                       # Number of insts commited each cycle
system.cpu0.commit.committed_per_cycle::stdev     1.423920                       # Number of insts commited each cycle
system.cpu0.commit.committed_per_cycle::underflows            0      0.00%      0.00% # Number of insts commited each cycle
system.cpu0.commit.committed_per_cycle::0    627061073     70.33%     70.33% # Number of insts commited each cycle
system.cpu0.commit.committed_per_cycle::1    156945080     17.60%     87.94% # Number of insts commited each cycle
system.cpu0.commit.committed_per_cycle::2     35950396      4.03%     91.97% # Number of insts commited each cycle
system.cpu0.commit.committed_per_cycle::3     34940838      3.92%     95.89% # Number of insts commited each cycle
system.cpu0.commit.committed_per_cycle::4     11777090      1.32%     97.21% # Number of insts commited each cycle
system.cpu0.commit.committed_per_cycle::5      4412128      0.49%     97.71% # Number of insts commited each cycle
system.cpu0.commit.committed_per_cycle::6       963293      0.11%     97.81% # Number of insts commited each cycle
system.cpu0.commit.committed_per_cycle::7      2245502      0.25%     98.07% # Number of insts commited each cycle
system.cpu0.commit.committed_per_cycle::8     17243919      1.93%    100.00% # Number of insts commited each cycle
system.cpu0.commit.committed_per_cycle::overflows            0      0.00%    100.00% # Number of insts commited each cycle
system.cpu0.commit.committed_per_cycle::min_value            0                       # Number of insts commited each cycle
system.cpu0.commit.committed_per_cycle::max_value            8                       # Number of insts commited each cycle
system.cpu0.commit.committed_per_cycle::total    891539319                       # Number of insts commited each cycle
system.cpu0.commit.fp_insts                        50                       # Number of committed floating point instructions.
system.cpu0.commit.function_calls            11672013                       # Number of function calls committed.
system.cpu0.commit.int_insts                543424785                       # Number of committed integer instructions.
system.cpu0.commit.loads                    174754777                       # Number of loads committed
system.cpu0.commit.membars                    1019943                       # Number of memory barriers committed
system.cpu0.commit.op_class_0::No_OpClass      1019949      0.18%      0.18% # Class of committed instruction
system.cpu0.commit.op_class_0::IntAlu       311034026     55.32%     55.50% # Class of committed instruction
system.cpu0.commit.op_class_0::IntMult        4137156      0.74%     56.23% # Class of committed instruction
system.cpu0.commit.op_class_0::IntDiv         1017773      0.18%     56.41% # Class of committed instruction
system.cpu0.commit.op_class_0::FloatAdd             0      0.00%     56.41% # Class of committed instruction
system.cpu0.commit.op_class_0::FloatCmp             4      0.00%     56.41% # Class of committed instruction
system.cpu0.commit.op_class_0::FloatCvt            12      0.00%     56.41% # Class of committed instruction
system.cpu0.commit.op_class_0::FloatMult            0      0.00%     56.41% # Class of committed instruction
system.cpu0.commit.op_class_0::FloatMultAcc            0      0.00%     56.41% # Class of committed instruction
system.cpu0.commit.op_class_0::FloatDiv             2      0.00%     56.41% # Class of committed instruction
system.cpu0.commit.op_class_0::FloatMisc            4      0.00%     56.41% # Class of committed instruction
system.cpu0.commit.op_class_0::FloatSqrt            0      0.00%     56.41% # Class of committed instruction
system.cpu0.commit.op_class_0::SimdAdd              0      0.00%     56.41% # Class of committed instruction
system.cpu0.commit.op_class_0::SimdAddAcc            0      0.00%     56.41% # Class of committed instruction
system.cpu0.commit.op_class_0::SimdAlu              0      0.00%     56.41% # Class of committed instruction
system.cpu0.commit.op_class_0::SimdCmp              0      0.00%     56.41% # Class of committed instruction
system.cpu0.commit.op_class_0::SimdCvt              0      0.00%     56.41% # Class of committed instruction
system.cpu0.commit.op_class_0::SimdMisc             0      0.00%     56.41% # Class of committed instruction
system.cpu0.commit.op_class_0::SimdMult             0      0.00%     56.41% # Class of committed instruction
system.cpu0.commit.op_class_0::SimdMultAcc            0      0.00%     56.41% # Class of committed instruction
system.cpu0.commit.op_class_0::SimdShift            0      0.00%     56.41% # Class of committed instruction
system.cpu0.commit.op_class_0::SimdShiftAcc            0      0.00%     56.41% # Class of committed instruction
system.cpu0.commit.op_class_0::SimdDiv              0      0.00%     56.41% # Class of committed instruction
system.cpu0.commit.op_class_0::SimdSqrt             0      0.00%     56.41% # Class of committed instruction
system.cpu0.commit.op_class_0::SimdFloatAdd            0      0.00%     56.41% # Class of committed instruction
system.cpu0.commit.op_class_0::SimdFloatAlu            0      0.00%     56.41% # Class of committed instruction
system.cpu0.commit.op_class_0::SimdFloatCmp            0      0.00%     56.41% # Class of committed instruction
system.cpu0.commit.op_class_0::SimdFloatCvt            0      0.00%     56.41% # Class of committed instruction
system.cpu0.commit.op_class_0::SimdFloatDiv            0      0.00%     56.41% # Class of committed instruction
system.cpu0.commit.op_class_0::SimdFloatMisc            0      0.00%     56.41% # Class of committed instruction
system.cpu0.commit.op_class_0::SimdFloatMult            0      0.00%     56.41% # Class of committed instruction
system.cpu0.commit.op_class_0::SimdFloatMultAcc            0      0.00%     56.41% # Class of committed instruction
system.cpu0.commit.op_class_0::SimdFloatSqrt            0      0.00%     56.41% # Class of committed instruction
system.cpu0.commit.op_class_0::SimdReduceAdd            0      0.00%     56.41% # Class of committed instruction
system.cpu0.commit.op_class_0::SimdReduceAlu            0      0.00%     56.41% # Class of committed instruction
system.cpu0.commit.op_class_0::SimdReduceCmp            0      0.00%     56.41% # Class of committed instruction
system.cpu0.commit.op_class_0::SimdFloatReduceAdd            0      0.00%     56.41% # Class of committed instruction
system.cpu0.commit.op_class_0::SimdFloatReduceCmp            0      0.00%     56.41% # Class of committed instruction
system.cpu0.commit.op_class_0::SimdAes              0      0.00%     56.41% # Class of committed instruction
system.cpu0.commit.op_class_0::SimdAesMix            0      0.00%     56.41% # Class of committed instruction
system.cpu0.commit.op_class_0::SimdSha1Hash            0      0.00%     56.41% # Class of committed instruction
system.cpu0.commit.op_class_0::SimdSha1Hash2            0      0.00%     56.41% # Class of committed instruction
system.cpu0.commit.op_class_0::SimdSha256Hash            0      0.00%     56.41% # Class of committed instruction
system.cpu0.commit.op_class_0::SimdSha256Hash2            0      0.00%     56.41% # Class of committed instruction
system.cpu0.commit.op_class_0::SimdShaSigma2            0      0.00%     56.41% # Class of committed instruction
system.cpu0.commit.op_class_0::SimdShaSigma3            0      0.00%     56.41% # Class of committed instruction
system.cpu0.commit.op_class_0::SimdPredAlu            0      0.00%     56.41% # Class of committed instruction
system.cpu0.commit.op_class_0::MemRead      175264163     31.17%     87.58% # Class of committed instruction
system.cpu0.commit.op_class_0::MemWrite      69813893     12.42%    100.00% # Class of committed instruction
=======
final_tick                               545000899500                       # Number of ticks from beginning of simulation (restored from checkpoints and never reset)
host_inst_rate                                  60174                       # Simulator instruction rate (inst/s)
host_mem_usage                                 701552                       # Number of bytes of host memory used
host_op_rate                                    60374                       # Simulator op (including micro ops) rate (op/s)
host_seconds                                 10179.59                       # Real time elapsed on the host
host_tick_rate                               53538572                       # Simulator tick rate (ticks/s)
sim_freq                                 1000000000000                       # Frequency of simulated ticks
sim_insts                                   612545295                       # Number of instructions simulated
sim_ops                                     614582868                       # Number of ops (including micro ops) simulated
sim_seconds                                  0.545001                       # Number of seconds simulated
sim_ticks                                545000899500                       # Number of ticks simulated
system.cpu0.branchPred.BTBCorrect                   0                       # Number of correct BTB predictions (this stat may not work properly.
system.cpu0.branchPred.BTBHitPct            88.080402                       # BTB Hit Percentage
system.cpu0.branchPred.BTBHits               83398060                       # Number of BTB hits
system.cpu0.branchPred.BTBLookups            94684014                       # Number of BTB lookups
system.cpu0.branchPred.RASInCorrect                 0                       # Number of incorrect RAS predictions.
system.cpu0.branchPred.condIncorrect         14751271                       # Number of conditional branches incorrect
system.cpu0.branchPred.condPredicted        121875481                       # Number of conditional branches predicted
system.cpu0.branchPred.indirectHits          10662302                       # Number of indirect target hits.
system.cpu0.branchPred.indirectLookups       10942130                       # Number of indirect predictor lookups.
system.cpu0.branchPred.indirectMisses          279828                       # Number of indirect misses.
system.cpu0.branchPred.lookups              157497865                       # Number of BP lookups
system.cpu0.branchPred.usedRAS                      0                       # Number of times the RAS was used to get a target.
system.cpu0.branchPredindirectMispredicted      1061437                       # Number of mispredicted indirect branches.
system.cpu0.commit.amos                       1018192                       # Number of atomic instructions committed
system.cpu0.commit.branchMispredicts          8281553                       # The number of times a branch was mispredicted
system.cpu0.commit.branches                 143202936                       # Number of branches committed
system.cpu0.commit.bw_lim_events             15571885                       # number cycles where commit BW limit reached
system.cpu0.commit.commitNonSpecStalls        3058445                       # The number of times commit has been forced to stall to communicate backwards
system.cpu0.commit.commitSquashedInsts       44017460                       # The number of squashed insts skipped by commit
system.cpu0.commit.committedInsts           580282279                       # Number of instructions committed
system.cpu0.commit.committedOps             581301754                       # Number of ops (including micro ops) committed
system.cpu0.commit.committed_per_cycle::samples    994558163                       # Number of insts commited each cycle
system.cpu0.commit.committed_per_cycle::mean     0.584482                       # Number of insts commited each cycle
system.cpu0.commit.committed_per_cycle::stdev     1.338223                       # Number of insts commited each cycle
system.cpu0.commit.committed_per_cycle::underflows            0      0.00%      0.00% # Number of insts commited each cycle
system.cpu0.commit.committed_per_cycle::0    713015979     71.69%     71.69% # Number of insts commited each cycle
system.cpu0.commit.committed_per_cycle::1    165989938     16.69%     88.38% # Number of insts commited each cycle
system.cpu0.commit.committed_per_cycle::2     42345506      4.26%     92.64% # Number of insts commited each cycle
system.cpu0.commit.committed_per_cycle::3     37306172      3.75%     96.39% # Number of insts commited each cycle
system.cpu0.commit.committed_per_cycle::4     12481414      1.25%     97.65% # Number of insts commited each cycle
system.cpu0.commit.committed_per_cycle::5      4194939      0.42%     98.07% # Number of insts commited each cycle
system.cpu0.commit.committed_per_cycle::6      2339453      0.24%     98.30% # Number of insts commited each cycle
system.cpu0.commit.committed_per_cycle::7      1312877      0.13%     98.43% # Number of insts commited each cycle
system.cpu0.commit.committed_per_cycle::8     15571885      1.57%    100.00% # Number of insts commited each cycle
system.cpu0.commit.committed_per_cycle::overflows            0      0.00%    100.00% # Number of insts commited each cycle
system.cpu0.commit.committed_per_cycle::min_value            0                       # Number of insts commited each cycle
system.cpu0.commit.committed_per_cycle::max_value            8                       # Number of insts commited each cycle
system.cpu0.commit.committed_per_cycle::total    994558163                       # Number of insts commited each cycle
system.cpu0.commit.fp_insts                        50                       # Number of committed floating point instructions.
system.cpu0.commit.function_calls            11887247                       # Number of function calls committed.
system.cpu0.commit.int_insts                561281048                       # Number of committed integer instructions.
system.cpu0.commit.loads                    179949507                       # Number of loads committed
system.cpu0.commit.membars                    2037573                       # Number of memory barriers committed
system.cpu0.commit.op_class_0::No_OpClass      2037579      0.35%      0.35% # Class of committed instruction
system.cpu0.commit.op_class_0::IntAlu       322227566     55.43%     55.78% # Class of committed instruction
system.cpu0.commit.op_class_0::IntMult        4137068      0.71%     56.49% # Class of committed instruction
system.cpu0.commit.op_class_0::IntDiv         1017773      0.18%     56.67% # Class of committed instruction
system.cpu0.commit.op_class_0::FloatAdd             0      0.00%     56.67% # Class of committed instruction
system.cpu0.commit.op_class_0::FloatCmp             4      0.00%     56.67% # Class of committed instruction
system.cpu0.commit.op_class_0::FloatCvt            12      0.00%     56.67% # Class of committed instruction
system.cpu0.commit.op_class_0::FloatMult            0      0.00%     56.67% # Class of committed instruction
system.cpu0.commit.op_class_0::FloatMultAcc            0      0.00%     56.67% # Class of committed instruction
system.cpu0.commit.op_class_0::FloatDiv             2      0.00%     56.67% # Class of committed instruction
system.cpu0.commit.op_class_0::FloatMisc            4      0.00%     56.67% # Class of committed instruction
system.cpu0.commit.op_class_0::FloatSqrt            0      0.00%     56.67% # Class of committed instruction
system.cpu0.commit.op_class_0::SimdAdd              0      0.00%     56.67% # Class of committed instruction
system.cpu0.commit.op_class_0::SimdAddAcc            0      0.00%     56.67% # Class of committed instruction
system.cpu0.commit.op_class_0::SimdAlu              0      0.00%     56.67% # Class of committed instruction
system.cpu0.commit.op_class_0::SimdCmp              0      0.00%     56.67% # Class of committed instruction
system.cpu0.commit.op_class_0::SimdCvt              0      0.00%     56.67% # Class of committed instruction
system.cpu0.commit.op_class_0::SimdMisc             0      0.00%     56.67% # Class of committed instruction
system.cpu0.commit.op_class_0::SimdMult             0      0.00%     56.67% # Class of committed instruction
system.cpu0.commit.op_class_0::SimdMultAcc            0      0.00%     56.67% # Class of committed instruction
system.cpu0.commit.op_class_0::SimdShift            0      0.00%     56.67% # Class of committed instruction
system.cpu0.commit.op_class_0::SimdShiftAcc            0      0.00%     56.67% # Class of committed instruction
system.cpu0.commit.op_class_0::SimdDiv              0      0.00%     56.67% # Class of committed instruction
system.cpu0.commit.op_class_0::SimdSqrt             0      0.00%     56.67% # Class of committed instruction
system.cpu0.commit.op_class_0::SimdFloatAdd            0      0.00%     56.67% # Class of committed instruction
system.cpu0.commit.op_class_0::SimdFloatAlu            0      0.00%     56.67% # Class of committed instruction
system.cpu0.commit.op_class_0::SimdFloatCmp            0      0.00%     56.67% # Class of committed instruction
system.cpu0.commit.op_class_0::SimdFloatCvt            0      0.00%     56.67% # Class of committed instruction
system.cpu0.commit.op_class_0::SimdFloatDiv            0      0.00%     56.67% # Class of committed instruction
system.cpu0.commit.op_class_0::SimdFloatMisc            0      0.00%     56.67% # Class of committed instruction
system.cpu0.commit.op_class_0::SimdFloatMult            0      0.00%     56.67% # Class of committed instruction
system.cpu0.commit.op_class_0::SimdFloatMultAcc            0      0.00%     56.67% # Class of committed instruction
system.cpu0.commit.op_class_0::SimdFloatSqrt            0      0.00%     56.67% # Class of committed instruction
system.cpu0.commit.op_class_0::SimdReduceAdd            0      0.00%     56.67% # Class of committed instruction
system.cpu0.commit.op_class_0::SimdReduceAlu            0      0.00%     56.67% # Class of committed instruction
system.cpu0.commit.op_class_0::SimdReduceCmp            0      0.00%     56.67% # Class of committed instruction
system.cpu0.commit.op_class_0::SimdFloatReduceAdd            0      0.00%     56.67% # Class of committed instruction
system.cpu0.commit.op_class_0::SimdFloatReduceCmp            0      0.00%     56.67% # Class of committed instruction
system.cpu0.commit.op_class_0::SimdAes              0      0.00%     56.67% # Class of committed instruction
system.cpu0.commit.op_class_0::SimdAesMix            0      0.00%     56.67% # Class of committed instruction
system.cpu0.commit.op_class_0::SimdSha1Hash            0      0.00%     56.67% # Class of committed instruction
system.cpu0.commit.op_class_0::SimdSha1Hash2            0      0.00%     56.67% # Class of committed instruction
system.cpu0.commit.op_class_0::SimdSha256Hash            0      0.00%     56.67% # Class of committed instruction
system.cpu0.commit.op_class_0::SimdSha256Hash2            0      0.00%     56.67% # Class of committed instruction
system.cpu0.commit.op_class_0::SimdShaSigma2            0      0.00%     56.67% # Class of committed instruction
system.cpu0.commit.op_class_0::SimdShaSigma3            0      0.00%     56.67% # Class of committed instruction
system.cpu0.commit.op_class_0::SimdPredAlu            0      0.00%     56.67% # Class of committed instruction
system.cpu0.commit.op_class_0::MemRead      180967691     31.13%     87.80% # Class of committed instruction
system.cpu0.commit.op_class_0::MemWrite      70914027     12.20%    100.00% # Class of committed instruction
>>>>>>> 6be7a0502e78ebf80a09b838e3e9c0d652379c93
system.cpu0.commit.op_class_0::FloatMemRead            8      0.00%    100.00% # Class of committed instruction
system.cpu0.commit.op_class_0::FloatMemWrite           20      0.00%    100.00% # Class of committed instruction
system.cpu0.commit.op_class_0::IprAccess            0      0.00%    100.00% # Class of committed instruction
system.cpu0.commit.op_class_0::InstPrefetch            0      0.00%    100.00% # Class of committed instruction
<<<<<<< HEAD
system.cpu0.commit.op_class_0::total        562287010                       # Class of committed instruction
system.cpu0.commit.refs                     245078084                       # Number of memory references committed
system.cpu0.commit.swp_count                        0                       # Number of s/w prefetches committed
system.cpu0.commit.vec_insts                        0                       # Number of committed Vector instructions.
system.cpu0.committedInsts                  561776348                       # Number of Instructions Simulated
system.cpu0.committedOps                    562287010                       # Number of Ops (including micro ops) Simulated
system.cpu0.cpi                              1.727449                       # CPI: Cycles Per Instruction
system.cpu0.cpi_total                        1.727449                       # CPI: Total CPI of All Threads
system.cpu0.decode.BlockedCycles            107205094                       # Number of cycles decode is blocked
system.cpu0.decode.BranchMispred              3013933                       # Number of times decode detected a branch misprediction
system.cpu0.decode.BranchResolved            75863221                       # Number of times decode resolved a branch
system.cpu0.decode.DecodedInsts             632060069                       # Number of instructions handled by decode
system.cpu0.decode.IdleCycles               349150989                       # Number of cycles decode is idle
system.cpu0.decode.RunCycles                438011300                       # Number of cycles decode is running
system.cpu0.decode.SquashCycles               5661755                       # Number of cycles decode is squashing
system.cpu0.decode.SquashedInsts              9638541                       # Number of squashed instructions handled by decode
system.cpu0.decode.UnblockCycles              2515356                       # Number of cycles decode is unblocking
=======
system.cpu0.commit.op_class_0::total        581301754                       # Class of committed instruction
system.cpu0.commit.refs                     251881746                       # Number of memory references committed
system.cpu0.commit.swp_count                        0                       # Number of s/w prefetches committed
system.cpu0.commit.vec_insts                        0                       # Number of committed Vector instructions.
system.cpu0.committedInsts                  580282279                       # Number of Instructions Simulated
system.cpu0.committedOps                    581301754                       # Number of Ops (including micro ops) Simulated
system.cpu0.cpi                              1.858496                       # CPI: Cycles Per Instruction
system.cpu0.cpi_total                        1.858496                       # CPI: Total CPI of All Threads
system.cpu0.decode.BlockedCycles            176235788                       # Number of cycles decode is blocked
system.cpu0.decode.BranchMispred              6479649                       # Number of times decode detected a branch misprediction
system.cpu0.decode.BranchResolved            81387558                       # Number of times decode resolved a branch
system.cpu0.decode.DecodedInsts             645012062                       # Number of instructions handled by decode
system.cpu0.decode.IdleCycles               373050146                       # Number of cycles decode is idle
system.cpu0.decode.RunCycles                445481258                       # Number of cycles decode is running
system.cpu0.decode.SquashCycles               8286128                       # Number of cycles decode is squashing
system.cpu0.decode.SquashedInsts              9710965                       # Number of squashed instructions handled by decode
system.cpu0.decode.UnblockCycles              3073699                       # Number of cycles decode is unblocking
>>>>>>> 6be7a0502e78ebf80a09b838e3e9c0d652379c93
system.cpu0.dtb.accesses                            0                       # DTB accesses
system.cpu0.dtb.hits                                0                       # DTB hits
system.cpu0.dtb.misses                              0                       # DTB misses
system.cpu0.dtb.read_accesses                       0                       # DTB read accesses
system.cpu0.dtb.read_hits                           0                       # DTB read hits
system.cpu0.dtb.read_misses                         0                       # DTB read misses
system.cpu0.dtb.write_accesses                      0                       # DTB write accesses
system.cpu0.dtb.write_hits                          0                       # DTB write hits
system.cpu0.dtb.write_misses                        0                       # DTB write misses
<<<<<<< HEAD
system.cpu0.fetch.Branches                  156052779                       # Number of branches that fetch encountered
system.cpu0.fetch.CacheLines                102911764                       # Number of cache lines fetched
system.cpu0.fetch.Cycles                    553417217                       # Number of cycles fetch has run and was not squashing or blocked
system.cpu0.fetch.IcacheSquashes              2925550                       # Number of outstanding Icache misses that were squashed
system.cpu0.fetch.IcacheWaitRetryStallCycles          148                       # Number of stall cycles due to full MSHR
system.cpu0.fetch.Insts                     653341415                       # Number of instructions fetch has processed
system.cpu0.fetch.MiscStallCycles                  22                       # Number of cycles fetch has spent waiting on interrupts, or bad addresses, or out of MSHRs
system.cpu0.fetch.PendingTrapStallCycles           52                       # Number of stall cycles due to pending traps
system.cpu0.fetch.SquashCycles               17342074                       # Number of cycles fetch has spent squashing
system.cpu0.fetch.branchRate                 0.160806                       # Number of branch fetches per cycle
system.cpu0.fetch.icacheStallCycles         340456018                       # Number of cycles fetch is stalled on an Icache miss
system.cpu0.fetch.predictedBranches          89232611                       # Number of branches that fetch has predicted taken
system.cpu0.fetch.rate                       0.673242                       # Number of inst fetches per cycle
system.cpu0.fetch.rateDist::samples         902544494                       # Number of instructions fetched each cycle (Total)
system.cpu0.fetch.rateDist::mean             0.724823                       # Number of instructions fetched each cycle (Total)
system.cpu0.fetch.rateDist::stdev            0.939170                       # Number of instructions fetched each cycle (Total)
system.cpu0.fetch.rateDist::underflows              0      0.00%      0.00% # Number of instructions fetched each cycle (Total)
system.cpu0.fetch.rateDist::0               445376757     49.35%     49.35% # Number of instructions fetched each cycle (Total)
system.cpu0.fetch.rateDist::1               337967183     37.45%     86.79% # Number of instructions fetched each cycle (Total)
system.cpu0.fetch.rateDist::2                61676834      6.83%     93.63% # Number of instructions fetched each cycle (Total)
system.cpu0.fetch.rateDist::3                43718189      4.84%     98.47% # Number of instructions fetched each cycle (Total)
system.cpu0.fetch.rateDist::4                10675123      1.18%     99.65% # Number of instructions fetched each cycle (Total)
system.cpu0.fetch.rateDist::5                 1815701      0.20%     99.85% # Number of instructions fetched each cycle (Total)
system.cpu0.fetch.rateDist::6                  293484      0.03%     99.89% # Number of instructions fetched each cycle (Total)
system.cpu0.fetch.rateDist::7                     479      0.00%     99.89% # Number of instructions fetched each cycle (Total)
system.cpu0.fetch.rateDist::8                 1020744      0.11%    100.00% # Number of instructions fetched each cycle (Total)
system.cpu0.fetch.rateDist::overflows               0      0.00%    100.00% # Number of instructions fetched each cycle (Total)
system.cpu0.fetch.rateDist::min_value               0                       # Number of instructions fetched each cycle (Total)
system.cpu0.fetch.rateDist::max_value               8                       # Number of instructions fetched each cycle (Total)
system.cpu0.fetch.rateDist::total           902544494                       # Number of instructions fetched each cycle (Total)
system.cpu0.fp_regfile_reads                       44                       # number of floating regfile reads
system.cpu0.fp_regfile_writes                      25                       # number of floating regfile writes
system.cpu0.idleCycles                       67895503                       # Total number of cycles that the CPU has spent unscheduled due to idling
system.cpu0.iew.branchMispredicts             5763643                       # Number of branch mispredicts detected at execute
system.cpu0.iew.exec_branches               146643268                       # Number of branches executed
system.cpu0.iew.exec_nop                            0                       # number of nop insts executed
system.cpu0.iew.exec_rate                    0.630736                       # Inst execution rate
system.cpu0.iew.exec_refs                   275398663                       # number of memory reference insts executed
system.cpu0.iew.exec_stores                  77587670                       # Number of stores executed
system.cpu0.iew.exec_swp                            0                       # number of swp insts executed
system.cpu0.iew.iewBlockCycles               88090716                       # Number of cycles IEW is blocking
system.cpu0.iew.iewDispLoadInsts            198401904                       # Number of dispatched load instructions
system.cpu0.iew.iewDispNonSpecInsts            682587                       # Number of dispatched non-speculative instructions
system.cpu0.iew.iewDispSquashedInsts          2843223                       # Number of squashed instructions skipped by dispatch
system.cpu0.iew.iewDispStoreInsts            78926553                       # Number of dispatched store instructions
system.cpu0.iew.iewDispatchedInsts          619552449                       # Number of instructions dispatched to IQ
system.cpu0.iew.iewExecLoadInsts            197810993                       # Number of load instructions executed
system.cpu0.iew.iewExecSquashedInsts          3916998                       # Number of squashed instructions skipped in execute
system.cpu0.iew.iewExecutedInsts            612091878                       # Number of executed instructions
system.cpu0.iew.iewIQFullEvents                506219                       # Number of times the IQ has become full, causing a stall
system.cpu0.iew.iewIdleCycles                       0                       # Number of cycles IEW is idle
system.cpu0.iew.iewLSQFullEvents              1761190                       # Number of times the LSQ has become full, causing a stall
system.cpu0.iew.iewSquashCycles               5661755                       # Number of cycles IEW is squashing
system.cpu0.iew.iewUnblockCycles              2866664                       # Number of cycles IEW is unblocking
system.cpu0.iew.lsq.thread0.blockedLoads            0                       # Number of blocked loads due to partial load-store forwarding
system.cpu0.iew.lsq.thread0.cacheBlocked        69512                       # Number of times an access to memory failed due to the cache being blocked
system.cpu0.iew.lsq.thread0.forwLoads         9404509                       # Number of loads that had data forwarded from stores
system.cpu0.iew.lsq.thread0.ignoredResponses        30173                       # Number of memory responses ignored because the instruction is squashed
system.cpu0.iew.lsq.thread0.invAddrLoads            0                       # Number of loads ignored due to an invalid address
system.cpu0.iew.lsq.thread0.invAddrSwpfs            0                       # Number of software prefetches ignored due to an invalid address
system.cpu0.iew.lsq.thread0.memOrderViolation         5339                       # Number of memory ordering violations
system.cpu0.iew.lsq.thread0.rescheduledLoads      3520936                       # Number of loads that were rescheduled
system.cpu0.iew.lsq.thread0.squashedLoads     23647127                       # Number of loads squashed
system.cpu0.iew.lsq.thread0.squashedStores      8603246                       # Number of stores squashed
system.cpu0.iew.memOrderViolationEvents          5339                       # Number of memory order violations
system.cpu0.iew.predictedNotTakenIncorrect       823281                       # Number of branches that were predicted not taken incorrectly
system.cpu0.iew.predictedTakenIncorrect       4940362                       # Number of branches that were predicted taken incorrectly
system.cpu0.iew.wb_consumers                271294644                       # num instructions consuming a value
system.cpu0.iew.wb_count                    605616623                       # cumulative count of insts written-back
system.cpu0.iew.wb_fanout                    0.837932                       # average fanout of values written-back
system.cpu0.iew.wb_producers                227326431                       # num instructions producing a value
system.cpu0.iew.wb_rate                      0.624064                       # insts written-back per cycle
system.cpu0.iew.wb_sent                     605713423                       # cumulative count of insts sent to commit
system.cpu0.int_regfile_reads               745085364                       # number of integer regfile reads
system.cpu0.int_regfile_writes              387126502                       # number of integer regfile writes
system.cpu0.ipc                              0.578888                       # IPC: Instructions Per Cycle
system.cpu0.ipc_total                        0.578888                       # IPC: Total IPC of All Threads
system.cpu0.iq.FU_type_0::No_OpClass          1020963      0.17%      0.17% # Type of FU issued
system.cpu0.iq.FU_type_0::IntAlu            332700917     54.01%     54.17% # Type of FU issued
system.cpu0.iq.FU_type_0::IntMult             4213311      0.68%     54.86% # Type of FU issued
system.cpu0.iq.FU_type_0::IntDiv              1018063      0.17%     55.02% # Type of FU issued
system.cpu0.iq.FU_type_0::FloatAdd                  0      0.00%     55.02% # Type of FU issued
system.cpu0.iq.FU_type_0::FloatCmp                  4      0.00%     55.02% # Type of FU issued
system.cpu0.iq.FU_type_0::FloatCvt                 12      0.00%     55.02% # Type of FU issued
system.cpu0.iq.FU_type_0::FloatMult                 0      0.00%     55.02% # Type of FU issued
system.cpu0.iq.FU_type_0::FloatMultAcc              0      0.00%     55.02% # Type of FU issued
system.cpu0.iq.FU_type_0::FloatDiv                  2      0.00%     55.02% # Type of FU issued
system.cpu0.iq.FU_type_0::FloatMisc                 4      0.00%     55.02% # Type of FU issued
system.cpu0.iq.FU_type_0::FloatSqrt                 0      0.00%     55.02% # Type of FU issued
system.cpu0.iq.FU_type_0::SimdAdd                   0      0.00%     55.02% # Type of FU issued
system.cpu0.iq.FU_type_0::SimdAddAcc                0      0.00%     55.02% # Type of FU issued
system.cpu0.iq.FU_type_0::SimdAlu                   0      0.00%     55.02% # Type of FU issued
system.cpu0.iq.FU_type_0::SimdCmp                   0      0.00%     55.02% # Type of FU issued
system.cpu0.iq.FU_type_0::SimdCvt                   0      0.00%     55.02% # Type of FU issued
system.cpu0.iq.FU_type_0::SimdMisc                  0      0.00%     55.02% # Type of FU issued
system.cpu0.iq.FU_type_0::SimdMult                  0      0.00%     55.02% # Type of FU issued
system.cpu0.iq.FU_type_0::SimdMultAcc               0      0.00%     55.02% # Type of FU issued
system.cpu0.iq.FU_type_0::SimdShift                 0      0.00%     55.02% # Type of FU issued
system.cpu0.iq.FU_type_0::SimdShiftAcc              0      0.00%     55.02% # Type of FU issued
system.cpu0.iq.FU_type_0::SimdDiv                   0      0.00%     55.02% # Type of FU issued
system.cpu0.iq.FU_type_0::SimdSqrt                  0      0.00%     55.02% # Type of FU issued
system.cpu0.iq.FU_type_0::SimdFloatAdd              0      0.00%     55.02% # Type of FU issued
system.cpu0.iq.FU_type_0::SimdFloatAlu              0      0.00%     55.02% # Type of FU issued
system.cpu0.iq.FU_type_0::SimdFloatCmp              0      0.00%     55.02% # Type of FU issued
system.cpu0.iq.FU_type_0::SimdFloatCvt              0      0.00%     55.02% # Type of FU issued
system.cpu0.iq.FU_type_0::SimdFloatDiv              0      0.00%     55.02% # Type of FU issued
system.cpu0.iq.FU_type_0::SimdFloatMisc             0      0.00%     55.02% # Type of FU issued
system.cpu0.iq.FU_type_0::SimdFloatMult             0      0.00%     55.02% # Type of FU issued
system.cpu0.iq.FU_type_0::SimdFloatMultAcc            0      0.00%     55.02% # Type of FU issued
system.cpu0.iq.FU_type_0::SimdFloatSqrt             0      0.00%     55.02% # Type of FU issued
system.cpu0.iq.FU_type_0::SimdReduceAdd             0      0.00%     55.02% # Type of FU issued
system.cpu0.iq.FU_type_0::SimdReduceAlu             0      0.00%     55.02% # Type of FU issued
system.cpu0.iq.FU_type_0::SimdReduceCmp             0      0.00%     55.02% # Type of FU issued
system.cpu0.iq.FU_type_0::SimdFloatReduceAdd            0      0.00%     55.02% # Type of FU issued
system.cpu0.iq.FU_type_0::SimdFloatReduceCmp            0      0.00%     55.02% # Type of FU issued
system.cpu0.iq.FU_type_0::SimdAes                   0      0.00%     55.02% # Type of FU issued
system.cpu0.iq.FU_type_0::SimdAesMix                0      0.00%     55.02% # Type of FU issued
system.cpu0.iq.FU_type_0::SimdSha1Hash              0      0.00%     55.02% # Type of FU issued
system.cpu0.iq.FU_type_0::SimdSha1Hash2             0      0.00%     55.02% # Type of FU issued
system.cpu0.iq.FU_type_0::SimdSha256Hash            0      0.00%     55.02% # Type of FU issued
system.cpu0.iq.FU_type_0::SimdSha256Hash2            0      0.00%     55.02% # Type of FU issued
system.cpu0.iq.FU_type_0::SimdShaSigma2             0      0.00%     55.02% # Type of FU issued
system.cpu0.iq.FU_type_0::SimdShaSigma3             0      0.00%     55.02% # Type of FU issued
system.cpu0.iq.FU_type_0::SimdPredAlu               0      0.00%     55.02% # Type of FU issued
system.cpu0.iq.FU_type_0::MemRead           199582866     32.40%     87.42% # Type of FU issued
system.cpu0.iq.FU_type_0::MemWrite           77472698     12.58%    100.00% # Type of FU issued
=======
system.cpu0.fetch.Branches                  157497865                       # Number of branches that fetch encountered
system.cpu0.fetch.CacheLines                108992889                       # Number of cache lines fetched
system.cpu0.fetch.Cycles                    632520388                       # Number of cycles fetch has run and was not squashing or blocked
system.cpu0.fetch.IcacheSquashes              3954429                       # Number of outstanding Icache misses that were squashed
system.cpu0.fetch.IcacheWaitRetryStallCycles          213                       # Number of stall cycles due to full MSHR
system.cpu0.fetch.Insts                     663434572                       # Number of instructions fetch has processed
system.cpu0.fetch.MiscStallCycles                  22                       # Number of cycles fetch has spent waiting on interrupts, or bad addresses, or out of MSHRs
system.cpu0.fetch.PendingTrapStallCycles           62                       # Number of stall cycles due to pending traps
system.cpu0.fetch.SquashCycles               29511708                       # Number of cycles fetch has spent squashing
system.cpu0.fetch.branchRate                 0.146041                       # Number of branch fetches per cycle
system.cpu0.fetch.icacheStallCycles         358850480                       # Number of cycles fetch is stalled on an Icache miss
system.cpu0.fetch.predictedBranches          94060362                       # Number of branches that fetch has predicted taken
system.cpu0.fetch.rate                       0.615173                       # Number of inst fetches per cycle
system.cpu0.fetch.rateDist::samples        1006127019                       # Number of instructions fetched each cycle (Total)
system.cpu0.fetch.rateDist::mean             0.660408                       # Number of instructions fetched each cycle (Total)
system.cpu0.fetch.rateDist::stdev            0.913353                       # Number of instructions fetched each cycle (Total)
system.cpu0.fetch.rateDist::underflows              0      0.00%      0.00% # Number of instructions fetched each cycle (Total)
system.cpu0.fetch.rateDist::0               538434924     53.52%     53.52% # Number of instructions fetched each cycle (Total)
system.cpu0.fetch.rateDist::1               348229846     34.61%     88.13% # Number of instructions fetched each cycle (Total)
system.cpu0.fetch.rateDist::2                62113002      6.17%     94.30% # Number of instructions fetched each cycle (Total)
system.cpu0.fetch.rateDist::3                43843098      4.36%     98.66% # Number of instructions fetched each cycle (Total)
system.cpu0.fetch.rateDist::4                10383797      1.03%     99.69% # Number of instructions fetched each cycle (Total)
system.cpu0.fetch.rateDist::5                 1840296      0.18%     99.87% # Number of instructions fetched each cycle (Total)
system.cpu0.fetch.rateDist::6                  261703      0.03%     99.90% # Number of instructions fetched each cycle (Total)
system.cpu0.fetch.rateDist::7                     447      0.00%     99.90% # Number of instructions fetched each cycle (Total)
system.cpu0.fetch.rateDist::8                 1019906      0.10%    100.00% # Number of instructions fetched each cycle (Total)
system.cpu0.fetch.rateDist::overflows               0      0.00%    100.00% # Number of instructions fetched each cycle (Total)
system.cpu0.fetch.rateDist::min_value               0                       # Number of instructions fetched each cycle (Total)
system.cpu0.fetch.rateDist::max_value               8                       # Number of instructions fetched each cycle (Total)
system.cpu0.fetch.rateDist::total          1006127019                       # Number of instructions fetched each cycle (Total)
system.cpu0.fp_regfile_reads                       44                       # number of floating regfile reads
system.cpu0.fp_regfile_writes                      24                       # number of floating regfile writes
system.cpu0.idleCycles                       72325515                       # Total number of cycles that the CPU has spent unscheduled due to idling
system.cpu0.iew.branchMispredicts             8400223                       # Number of branch mispredicts detected at execute
system.cpu0.iew.exec_branches               147082017                       # Number of branches executed
system.cpu0.iew.exec_nop                            0                       # number of nop insts executed
system.cpu0.iew.exec_rate                    0.571378                       # Inst execution rate
system.cpu0.iew.exec_refs                   274961633                       # number of memory reference insts executed
system.cpu0.iew.exec_stores                  74356399                       # Number of stores executed
system.cpu0.iew.exec_swp                            0                       # number of swp insts executed
system.cpu0.iew.iewBlockCycles              148731110                       # Number of cycles IEW is blocking
system.cpu0.iew.iewDispLoadInsts            202110786                       # Number of dispatched load instructions
system.cpu0.iew.iewDispNonSpecInsts           1021094                       # Number of dispatched non-speculative instructions
system.cpu0.iew.iewDispSquashedInsts          5339722                       # Number of squashed instructions skipped by dispatch
system.cpu0.iew.iewDispStoreInsts            75172894                       # Number of dispatched store instructions
system.cpu0.iew.iewDispatchedInsts          625301618                       # Number of instructions dispatched to IQ
system.cpu0.iew.iewExecLoadInsts            200605234                       # Number of load instructions executed
system.cpu0.iew.iewExecSquashedInsts          7116568                       # Number of squashed instructions skipped in execute
system.cpu0.iew.iewExecutedInsts            616204551                       # Number of executed instructions
system.cpu0.iew.iewIQFullEvents               1037557                       # Number of times the IQ has become full, causing a stall
system.cpu0.iew.iewIdleCycles                       0                       # Number of cycles IEW is idle
system.cpu0.iew.iewLSQFullEvents              2122232                       # Number of times the LSQ has become full, causing a stall
system.cpu0.iew.iewSquashCycles               8286128                       # Number of cycles IEW is squashing
system.cpu0.iew.iewUnblockCycles              4302502                       # Number of cycles IEW is unblocking
system.cpu0.iew.lsq.thread0.blockedLoads            0                       # Number of blocked loads due to partial load-store forwarding
system.cpu0.iew.lsq.thread0.cacheBlocked        68666                       # Number of times an access to memory failed due to the cache being blocked
system.cpu0.iew.lsq.thread0.forwLoads         8867296                       # Number of loads that had data forwarded from stores
system.cpu0.iew.lsq.thread0.ignoredResponses        57269                       # Number of memory responses ignored because the instruction is squashed
system.cpu0.iew.lsq.thread0.invAddrLoads            0                       # Number of loads ignored due to an invalid address
system.cpu0.iew.lsq.thread0.invAddrSwpfs            0                       # Number of software prefetches ignored due to an invalid address
system.cpu0.iew.lsq.thread0.memOrderViolation         5148                       # Number of memory ordering violations
system.cpu0.iew.lsq.thread0.rescheduledLoads      2194742                       # Number of loads that were rescheduled
system.cpu0.iew.lsq.thread0.squashedLoads     22161279                       # Number of loads squashed
system.cpu0.iew.lsq.thread0.squashedStores      3240655                       # Number of stores squashed
system.cpu0.iew.memOrderViolationEvents          5148                       # Number of memory order violations
system.cpu0.iew.predictedNotTakenIncorrect       875845                       # Number of branches that were predicted not taken incorrectly
system.cpu0.iew.predictedTakenIncorrect       7524378                       # Number of branches that were predicted taken incorrectly
system.cpu0.iew.wb_consumers                274050362                       # num instructions consuming a value
system.cpu0.iew.wb_count                    608944583                       # cumulative count of insts written-back
system.cpu0.iew.wb_fanout                    0.840069                       # average fanout of values written-back
system.cpu0.iew.wb_producers                230221091                       # num instructions producing a value
system.cpu0.iew.wb_rate                      0.564647                       # insts written-back per cycle
system.cpu0.iew.wb_sent                     608993242                       # cumulative count of insts sent to commit
system.cpu0.int_regfile_reads               750841504                       # number of integer regfile reads
system.cpu0.int_regfile_writes              392064206                       # number of integer regfile writes
system.cpu0.ipc                              0.538069                       # IPC: Instructions Per Cycle
system.cpu0.ipc_total                        0.538069                       # IPC: Total IPC of All Threads
system.cpu0.iq.FU_type_0::No_OpClass          2038437      0.33%      0.33% # Type of FU issued
system.cpu0.iq.FU_type_0::IntAlu            337766194     54.19%     54.52% # Type of FU issued
system.cpu0.iq.FU_type_0::IntMult             4213009      0.68%     55.19% # Type of FU issued
system.cpu0.iq.FU_type_0::IntDiv              1018047      0.16%     55.35% # Type of FU issued
system.cpu0.iq.FU_type_0::FloatAdd                  0      0.00%     55.35% # Type of FU issued
system.cpu0.iq.FU_type_0::FloatCmp                  4      0.00%     55.35% # Type of FU issued
system.cpu0.iq.FU_type_0::FloatCvt                 12      0.00%     55.35% # Type of FU issued
system.cpu0.iq.FU_type_0::FloatMult                 0      0.00%     55.35% # Type of FU issued
system.cpu0.iq.FU_type_0::FloatMultAcc              0      0.00%     55.35% # Type of FU issued
system.cpu0.iq.FU_type_0::FloatDiv                  2      0.00%     55.35% # Type of FU issued
system.cpu0.iq.FU_type_0::FloatMisc                 4      0.00%     55.35% # Type of FU issued
system.cpu0.iq.FU_type_0::FloatSqrt                 0      0.00%     55.35% # Type of FU issued
system.cpu0.iq.FU_type_0::SimdAdd                   0      0.00%     55.35% # Type of FU issued
system.cpu0.iq.FU_type_0::SimdAddAcc                0      0.00%     55.35% # Type of FU issued
system.cpu0.iq.FU_type_0::SimdAlu                   0      0.00%     55.35% # Type of FU issued
system.cpu0.iq.FU_type_0::SimdCmp                   0      0.00%     55.35% # Type of FU issued
system.cpu0.iq.FU_type_0::SimdCvt                   0      0.00%     55.35% # Type of FU issued
system.cpu0.iq.FU_type_0::SimdMisc                  0      0.00%     55.35% # Type of FU issued
system.cpu0.iq.FU_type_0::SimdMult                  0      0.00%     55.35% # Type of FU issued
system.cpu0.iq.FU_type_0::SimdMultAcc               0      0.00%     55.35% # Type of FU issued
system.cpu0.iq.FU_type_0::SimdShift                 0      0.00%     55.35% # Type of FU issued
system.cpu0.iq.FU_type_0::SimdShiftAcc              0      0.00%     55.35% # Type of FU issued
system.cpu0.iq.FU_type_0::SimdDiv                   0      0.00%     55.35% # Type of FU issued
system.cpu0.iq.FU_type_0::SimdSqrt                  0      0.00%     55.35% # Type of FU issued
system.cpu0.iq.FU_type_0::SimdFloatAdd              0      0.00%     55.35% # Type of FU issued
system.cpu0.iq.FU_type_0::SimdFloatAlu              0      0.00%     55.35% # Type of FU issued
system.cpu0.iq.FU_type_0::SimdFloatCmp              0      0.00%     55.35% # Type of FU issued
system.cpu0.iq.FU_type_0::SimdFloatCvt              0      0.00%     55.35% # Type of FU issued
system.cpu0.iq.FU_type_0::SimdFloatDiv              0      0.00%     55.35% # Type of FU issued
system.cpu0.iq.FU_type_0::SimdFloatMisc             0      0.00%     55.35% # Type of FU issued
system.cpu0.iq.FU_type_0::SimdFloatMult             0      0.00%     55.35% # Type of FU issued
system.cpu0.iq.FU_type_0::SimdFloatMultAcc            0      0.00%     55.35% # Type of FU issued
system.cpu0.iq.FU_type_0::SimdFloatSqrt             0      0.00%     55.35% # Type of FU issued
system.cpu0.iq.FU_type_0::SimdReduceAdd             0      0.00%     55.35% # Type of FU issued
system.cpu0.iq.FU_type_0::SimdReduceAlu             0      0.00%     55.35% # Type of FU issued
system.cpu0.iq.FU_type_0::SimdReduceCmp             0      0.00%     55.35% # Type of FU issued
system.cpu0.iq.FU_type_0::SimdFloatReduceAdd            0      0.00%     55.35% # Type of FU issued
system.cpu0.iq.FU_type_0::SimdFloatReduceCmp            0      0.00%     55.35% # Type of FU issued
system.cpu0.iq.FU_type_0::SimdAes                   0      0.00%     55.35% # Type of FU issued
system.cpu0.iq.FU_type_0::SimdAesMix                0      0.00%     55.35% # Type of FU issued
system.cpu0.iq.FU_type_0::SimdSha1Hash              0      0.00%     55.35% # Type of FU issued
system.cpu0.iq.FU_type_0::SimdSha1Hash2             0      0.00%     55.35% # Type of FU issued
system.cpu0.iq.FU_type_0::SimdSha256Hash            0      0.00%     55.35% # Type of FU issued
system.cpu0.iq.FU_type_0::SimdSha256Hash2            0      0.00%     55.35% # Type of FU issued
system.cpu0.iq.FU_type_0::SimdShaSigma2             0      0.00%     55.35% # Type of FU issued
system.cpu0.iq.FU_type_0::SimdShaSigma3             0      0.00%     55.35% # Type of FU issued
system.cpu0.iq.FU_type_0::SimdPredAlu               0      0.00%     55.35% # Type of FU issued
system.cpu0.iq.FU_type_0::MemRead           204616514     32.83%     88.18% # Type of FU issued
system.cpu0.iq.FU_type_0::MemWrite           73668860     11.82%    100.00% # Type of FU issued
>>>>>>> 6be7a0502e78ebf80a09b838e3e9c0d652379c93
system.cpu0.iq.FU_type_0::FloatMemRead             16      0.00%    100.00% # Type of FU issued
system.cpu0.iq.FU_type_0::FloatMemWrite            20      0.00%    100.00% # Type of FU issued
system.cpu0.iq.FU_type_0::IprAccess                 0      0.00%    100.00% # Type of FU issued
system.cpu0.iq.FU_type_0::InstPrefetch              0      0.00%    100.00% # Type of FU issued
<<<<<<< HEAD
system.cpu0.iq.FU_type_0::total             616008876                       # Type of FU issued
system.cpu0.iq.fp_alu_accesses                     62                       # Number of floating point alu accesses
system.cpu0.iq.fp_inst_queue_reads                120                       # Number of floating instruction queue reads
system.cpu0.iq.fp_inst_queue_wakeup_accesses           53                       # Number of floating instruction queue wakeup accesses
system.cpu0.iq.fp_inst_queue_writes                66                       # Number of floating instruction queue writes
system.cpu0.iq.fu_busy_cnt                     701353                       # FU busy when requested
system.cpu0.iq.fu_busy_rate                  0.001139                       # FU busy rate (busy events/executed inst)
system.cpu0.iq.fu_full::No_OpClass                  0      0.00%      0.00% # attempts to use FU when none available
system.cpu0.iq.fu_full::IntAlu                 122140     17.41%     17.41% # attempts to use FU when none available
system.cpu0.iq.fu_full::IntMult                     7      0.00%     17.42% # attempts to use FU when none available
system.cpu0.iq.fu_full::IntDiv                      0      0.00%     17.42% # attempts to use FU when none available
system.cpu0.iq.fu_full::FloatAdd                    0      0.00%     17.42% # attempts to use FU when none available
system.cpu0.iq.fu_full::FloatCmp                    0      0.00%     17.42% # attempts to use FU when none available
system.cpu0.iq.fu_full::FloatCvt                    0      0.00%     17.42% # attempts to use FU when none available
system.cpu0.iq.fu_full::FloatMult                   0      0.00%     17.42% # attempts to use FU when none available
system.cpu0.iq.fu_full::FloatMultAcc                0      0.00%     17.42% # attempts to use FU when none available
system.cpu0.iq.fu_full::FloatDiv                    0      0.00%     17.42% # attempts to use FU when none available
system.cpu0.iq.fu_full::FloatMisc                   0      0.00%     17.42% # attempts to use FU when none available
system.cpu0.iq.fu_full::FloatSqrt                   0      0.00%     17.42% # attempts to use FU when none available
system.cpu0.iq.fu_full::SimdAdd                     0      0.00%     17.42% # attempts to use FU when none available
system.cpu0.iq.fu_full::SimdAddAcc                  0      0.00%     17.42% # attempts to use FU when none available
system.cpu0.iq.fu_full::SimdAlu                     0      0.00%     17.42% # attempts to use FU when none available
system.cpu0.iq.fu_full::SimdCmp                     0      0.00%     17.42% # attempts to use FU when none available
system.cpu0.iq.fu_full::SimdCvt                     0      0.00%     17.42% # attempts to use FU when none available
system.cpu0.iq.fu_full::SimdMisc                    0      0.00%     17.42% # attempts to use FU when none available
system.cpu0.iq.fu_full::SimdMult                    0      0.00%     17.42% # attempts to use FU when none available
system.cpu0.iq.fu_full::SimdMultAcc                 0      0.00%     17.42% # attempts to use FU when none available
system.cpu0.iq.fu_full::SimdShift                   0      0.00%     17.42% # attempts to use FU when none available
system.cpu0.iq.fu_full::SimdShiftAcc                0      0.00%     17.42% # attempts to use FU when none available
system.cpu0.iq.fu_full::SimdDiv                     0      0.00%     17.42% # attempts to use FU when none available
system.cpu0.iq.fu_full::SimdSqrt                    0      0.00%     17.42% # attempts to use FU when none available
system.cpu0.iq.fu_full::SimdFloatAdd                0      0.00%     17.42% # attempts to use FU when none available
system.cpu0.iq.fu_full::SimdFloatAlu                0      0.00%     17.42% # attempts to use FU when none available
system.cpu0.iq.fu_full::SimdFloatCmp                0      0.00%     17.42% # attempts to use FU when none available
system.cpu0.iq.fu_full::SimdFloatCvt                0      0.00%     17.42% # attempts to use FU when none available
system.cpu0.iq.fu_full::SimdFloatDiv                0      0.00%     17.42% # attempts to use FU when none available
system.cpu0.iq.fu_full::SimdFloatMisc               0      0.00%     17.42% # attempts to use FU when none available
system.cpu0.iq.fu_full::SimdFloatMult               0      0.00%     17.42% # attempts to use FU when none available
system.cpu0.iq.fu_full::SimdFloatMultAcc            0      0.00%     17.42% # attempts to use FU when none available
system.cpu0.iq.fu_full::SimdFloatSqrt               0      0.00%     17.42% # attempts to use FU when none available
system.cpu0.iq.fu_full::SimdReduceAdd               0      0.00%     17.42% # attempts to use FU when none available
system.cpu0.iq.fu_full::SimdReduceAlu               0      0.00%     17.42% # attempts to use FU when none available
system.cpu0.iq.fu_full::SimdReduceCmp               0      0.00%     17.42% # attempts to use FU when none available
system.cpu0.iq.fu_full::SimdFloatReduceAdd            0      0.00%     17.42% # attempts to use FU when none available
system.cpu0.iq.fu_full::SimdFloatReduceCmp            0      0.00%     17.42% # attempts to use FU when none available
system.cpu0.iq.fu_full::SimdAes                     0      0.00%     17.42% # attempts to use FU when none available
system.cpu0.iq.fu_full::SimdAesMix                  0      0.00%     17.42% # attempts to use FU when none available
system.cpu0.iq.fu_full::SimdSha1Hash                0      0.00%     17.42% # attempts to use FU when none available
system.cpu0.iq.fu_full::SimdSha1Hash2               0      0.00%     17.42% # attempts to use FU when none available
system.cpu0.iq.fu_full::SimdSha256Hash              0      0.00%     17.42% # attempts to use FU when none available
system.cpu0.iq.fu_full::SimdSha256Hash2             0      0.00%     17.42% # attempts to use FU when none available
system.cpu0.iq.fu_full::SimdShaSigma2               0      0.00%     17.42% # attempts to use FU when none available
system.cpu0.iq.fu_full::SimdShaSigma3               0      0.00%     17.42% # attempts to use FU when none available
system.cpu0.iq.fu_full::SimdPredAlu                 0      0.00%     17.42% # attempts to use FU when none available
system.cpu0.iq.fu_full::MemRead                493433     70.35%     87.77% # attempts to use FU when none available
system.cpu0.iq.fu_full::MemWrite                85769     12.23%    100.00% # attempts to use FU when none available
=======
system.cpu0.iq.FU_type_0::total             623321119                       # Type of FU issued
system.cpu0.iq.fp_alu_accesses                     62                       # Number of floating point alu accesses
system.cpu0.iq.fp_inst_queue_reads                120                       # Number of floating instruction queue reads
system.cpu0.iq.fp_inst_queue_wakeup_accesses           52                       # Number of floating instruction queue wakeup accesses
system.cpu0.iq.fp_inst_queue_writes                72                       # Number of floating instruction queue writes
system.cpu0.iq.fu_busy_cnt                    1216096                       # FU busy when requested
system.cpu0.iq.fu_busy_rate                  0.001951                       # FU busy rate (busy events/executed inst)
system.cpu0.iq.fu_full::No_OpClass                  0      0.00%      0.00% # attempts to use FU when none available
system.cpu0.iq.fu_full::IntAlu                 192510     15.83%     15.83% # attempts to use FU when none available
system.cpu0.iq.fu_full::IntMult                     3      0.00%     15.83% # attempts to use FU when none available
system.cpu0.iq.fu_full::IntDiv                      0      0.00%     15.83% # attempts to use FU when none available
system.cpu0.iq.fu_full::FloatAdd                    0      0.00%     15.83% # attempts to use FU when none available
system.cpu0.iq.fu_full::FloatCmp                    0      0.00%     15.83% # attempts to use FU when none available
system.cpu0.iq.fu_full::FloatCvt                    0      0.00%     15.83% # attempts to use FU when none available
system.cpu0.iq.fu_full::FloatMult                   0      0.00%     15.83% # attempts to use FU when none available
system.cpu0.iq.fu_full::FloatMultAcc                0      0.00%     15.83% # attempts to use FU when none available
system.cpu0.iq.fu_full::FloatDiv                    0      0.00%     15.83% # attempts to use FU when none available
system.cpu0.iq.fu_full::FloatMisc                   0      0.00%     15.83% # attempts to use FU when none available
system.cpu0.iq.fu_full::FloatSqrt                   0      0.00%     15.83% # attempts to use FU when none available
system.cpu0.iq.fu_full::SimdAdd                     0      0.00%     15.83% # attempts to use FU when none available
system.cpu0.iq.fu_full::SimdAddAcc                  0      0.00%     15.83% # attempts to use FU when none available
system.cpu0.iq.fu_full::SimdAlu                     0      0.00%     15.83% # attempts to use FU when none available
system.cpu0.iq.fu_full::SimdCmp                     0      0.00%     15.83% # attempts to use FU when none available
system.cpu0.iq.fu_full::SimdCvt                     0      0.00%     15.83% # attempts to use FU when none available
system.cpu0.iq.fu_full::SimdMisc                    0      0.00%     15.83% # attempts to use FU when none available
system.cpu0.iq.fu_full::SimdMult                    0      0.00%     15.83% # attempts to use FU when none available
system.cpu0.iq.fu_full::SimdMultAcc                 0      0.00%     15.83% # attempts to use FU when none available
system.cpu0.iq.fu_full::SimdShift                   0      0.00%     15.83% # attempts to use FU when none available
system.cpu0.iq.fu_full::SimdShiftAcc                0      0.00%     15.83% # attempts to use FU when none available
system.cpu0.iq.fu_full::SimdDiv                     0      0.00%     15.83% # attempts to use FU when none available
system.cpu0.iq.fu_full::SimdSqrt                    0      0.00%     15.83% # attempts to use FU when none available
system.cpu0.iq.fu_full::SimdFloatAdd                0      0.00%     15.83% # attempts to use FU when none available
system.cpu0.iq.fu_full::SimdFloatAlu                0      0.00%     15.83% # attempts to use FU when none available
system.cpu0.iq.fu_full::SimdFloatCmp                0      0.00%     15.83% # attempts to use FU when none available
system.cpu0.iq.fu_full::SimdFloatCvt                0      0.00%     15.83% # attempts to use FU when none available
system.cpu0.iq.fu_full::SimdFloatDiv                0      0.00%     15.83% # attempts to use FU when none available
system.cpu0.iq.fu_full::SimdFloatMisc               0      0.00%     15.83% # attempts to use FU when none available
system.cpu0.iq.fu_full::SimdFloatMult               0      0.00%     15.83% # attempts to use FU when none available
system.cpu0.iq.fu_full::SimdFloatMultAcc            0      0.00%     15.83% # attempts to use FU when none available
system.cpu0.iq.fu_full::SimdFloatSqrt               0      0.00%     15.83% # attempts to use FU when none available
system.cpu0.iq.fu_full::SimdReduceAdd               0      0.00%     15.83% # attempts to use FU when none available
system.cpu0.iq.fu_full::SimdReduceAlu               0      0.00%     15.83% # attempts to use FU when none available
system.cpu0.iq.fu_full::SimdReduceCmp               0      0.00%     15.83% # attempts to use FU when none available
system.cpu0.iq.fu_full::SimdFloatReduceAdd            0      0.00%     15.83% # attempts to use FU when none available
system.cpu0.iq.fu_full::SimdFloatReduceCmp            0      0.00%     15.83% # attempts to use FU when none available
system.cpu0.iq.fu_full::SimdAes                     0      0.00%     15.83% # attempts to use FU when none available
system.cpu0.iq.fu_full::SimdAesMix                  0      0.00%     15.83% # attempts to use FU when none available
system.cpu0.iq.fu_full::SimdSha1Hash                0      0.00%     15.83% # attempts to use FU when none available
system.cpu0.iq.fu_full::SimdSha1Hash2               0      0.00%     15.83% # attempts to use FU when none available
system.cpu0.iq.fu_full::SimdSha256Hash              0      0.00%     15.83% # attempts to use FU when none available
system.cpu0.iq.fu_full::SimdSha256Hash2             0      0.00%     15.83% # attempts to use FU when none available
system.cpu0.iq.fu_full::SimdShaSigma2               0      0.00%     15.83% # attempts to use FU when none available
system.cpu0.iq.fu_full::SimdShaSigma3               0      0.00%     15.83% # attempts to use FU when none available
system.cpu0.iq.fu_full::SimdPredAlu                 0      0.00%     15.83% # attempts to use FU when none available
system.cpu0.iq.fu_full::MemRead                890047     73.19%     89.02% # attempts to use FU when none available
system.cpu0.iq.fu_full::MemWrite               133532     10.98%    100.00% # attempts to use FU when none available
>>>>>>> 6be7a0502e78ebf80a09b838e3e9c0d652379c93
system.cpu0.iq.fu_full::FloatMemRead                0      0.00%    100.00% # attempts to use FU when none available
system.cpu0.iq.fu_full::FloatMemWrite               4      0.00%    100.00% # attempts to use FU when none available
system.cpu0.iq.fu_full::IprAccess                   0      0.00%    100.00% # attempts to use FU when none available
system.cpu0.iq.fu_full::InstPrefetch                0      0.00%    100.00% # attempts to use FU when none available
<<<<<<< HEAD
system.cpu0.iq.int_alu_accesses             615689204                       # Number of integer alu accesses
system.cpu0.iq.int_inst_queue_reads        2135318459                       # Number of integer instruction queue reads
system.cpu0.iq.int_inst_queue_wakeup_accesses    605616570                       # Number of integer instruction queue wakeup accesses
system.cpu0.iq.int_inst_queue_writes        676822474                       # Number of integer instruction queue writes
system.cpu0.iq.iqInstsAdded                 617509796                       # Number of instructions added to the IQ (excludes non-spec)
system.cpu0.iq.iqInstsIssued                616008876                       # Number of instructions issued
system.cpu0.iq.iqNonSpecInstsAdded            2042653                       # Number of non-speculative instructions added to the IQ
system.cpu0.iq.iqSquashedInstsExamined       57265436                       # Number of squashed instructions iterated over during squash; mainly for profiling
system.cpu0.iq.iqSquashedInstsIssued            54980                       # Number of squashed instructions issued
system.cpu0.iq.iqSquashedNonSpecRemoved        510309                       # Number of squashed non-spec instructions that were removed
system.cpu0.iq.iqSquashedOperandsExamined     14041344                       # Number of squashed operands that are examined and possibly removed from graph
system.cpu0.iq.issued_per_cycle::samples    902544494                       # Number of insts issued each cycle
system.cpu0.iq.issued_per_cycle::mean        0.682525                       # Number of insts issued each cycle
system.cpu0.iq.issued_per_cycle::stdev       0.867282                       # Number of insts issued each cycle
system.cpu0.iq.issued_per_cycle::underflows            0      0.00%      0.00% # Number of insts issued each cycle
system.cpu0.iq.issued_per_cycle::0          473402428     52.45%     52.45% # Number of insts issued each cycle
system.cpu0.iq.issued_per_cycle::1          287471838     31.85%     84.30% # Number of insts issued each cycle
system.cpu0.iq.issued_per_cycle::2          104026005     11.53%     95.83% # Number of insts issued each cycle
system.cpu0.iq.issued_per_cycle::3           31346453      3.47%     99.30% # Number of insts issued each cycle
system.cpu0.iq.issued_per_cycle::4            5604714      0.62%     99.92% # Number of insts issued each cycle
system.cpu0.iq.issued_per_cycle::5             300761      0.03%     99.96% # Number of insts issued each cycle
system.cpu0.iq.issued_per_cycle::6             274910      0.03%     99.99% # Number of insts issued each cycle
system.cpu0.iq.issued_per_cycle::7              65532      0.01%     99.99% # Number of insts issued each cycle
system.cpu0.iq.issued_per_cycle::8              51853      0.01%    100.00% # Number of insts issued each cycle
system.cpu0.iq.issued_per_cycle::overflows            0      0.00%    100.00% # Number of insts issued each cycle
system.cpu0.iq.issued_per_cycle::min_value            0                       # Number of insts issued each cycle
system.cpu0.iq.issued_per_cycle::max_value            8                       # Number of insts issued each cycle
system.cpu0.iq.issued_per_cycle::total      902544494                       # Number of insts issued each cycle
system.cpu0.iq.rate                          0.634773                       # Inst issue rate
=======
system.cpu0.iq.int_alu_accesses             622498716                       # Number of integer alu accesses
system.cpu0.iq.int_inst_queue_reads        2254065030                       # Number of integer instruction queue reads
system.cpu0.iq.int_inst_queue_wakeup_accesses    608944531                       # Number of integer instruction queue wakeup accesses
system.cpu0.iq.int_inst_queue_writes        669305826                       # Number of integer instruction queue writes
system.cpu0.iq.iqInstsAdded                 622242771                       # Number of instructions added to the IQ (excludes non-spec)
system.cpu0.iq.iqInstsIssued                623321119                       # Number of instructions issued
system.cpu0.iq.iqNonSpecInstsAdded            3058847                       # Number of non-speculative instructions added to the IQ
system.cpu0.iq.iqSquashedInstsExamined       43999861                       # Number of squashed instructions iterated over during squash; mainly for profiling
system.cpu0.iq.iqSquashedInstsIssued            79797                       # Number of squashed instructions issued
system.cpu0.iq.iqSquashedNonSpecRemoved           402                       # Number of squashed non-spec instructions that were removed
system.cpu0.iq.iqSquashedOperandsExamined     15270211                       # Number of squashed operands that are examined and possibly removed from graph
system.cpu0.iq.issued_per_cycle::samples   1006127019                       # Number of insts issued each cycle
system.cpu0.iq.issued_per_cycle::mean        0.619525                       # Number of insts issued each cycle
system.cpu0.iq.issued_per_cycle::stdev       0.844633                       # Number of insts issued each cycle
system.cpu0.iq.issued_per_cycle::underflows            0      0.00%      0.00% # Number of insts issued each cycle
system.cpu0.iq.issued_per_cycle::0          567990777     56.45%     56.45% # Number of insts issued each cycle
system.cpu0.iq.issued_per_cycle::1          298155721     29.63%     86.09% # Number of insts issued each cycle
system.cpu0.iq.issued_per_cycle::2          102034704     10.14%     96.23% # Number of insts issued each cycle
system.cpu0.iq.issued_per_cycle::3           32285159      3.21%     99.44% # Number of insts issued each cycle
system.cpu0.iq.issued_per_cycle::4            4822690      0.48%     99.92% # Number of insts issued each cycle
system.cpu0.iq.issued_per_cycle::5             310404      0.03%     99.95% # Number of insts issued each cycle
system.cpu0.iq.issued_per_cycle::6             366528      0.04%     99.98% # Number of insts issued each cycle
system.cpu0.iq.issued_per_cycle::7              89723      0.01%     99.99% # Number of insts issued each cycle
system.cpu0.iq.issued_per_cycle::8              71313      0.01%    100.00% # Number of insts issued each cycle
system.cpu0.iq.issued_per_cycle::overflows            0      0.00%    100.00% # Number of insts issued each cycle
system.cpu0.iq.issued_per_cycle::min_value            0                       # Number of insts issued each cycle
system.cpu0.iq.issued_per_cycle::max_value            8                       # Number of insts issued each cycle
system.cpu0.iq.issued_per_cycle::total     1006127019                       # Number of insts issued each cycle
system.cpu0.iq.rate                          0.577977                       # Inst issue rate
>>>>>>> 6be7a0502e78ebf80a09b838e3e9c0d652379c93
system.cpu0.iq.vec_alu_accesses                     0                       # Number of vector alu accesses
system.cpu0.iq.vec_inst_queue_reads                 0                       # Number of vector instruction queue reads
system.cpu0.iq.vec_inst_queue_wakeup_accesses            0                       # Number of vector instruction queue wakeup accesses
system.cpu0.iq.vec_inst_queue_writes                0                       # Number of vector instruction queue writes
system.cpu0.itb.accesses                            0                       # DTB accesses
system.cpu0.itb.hits                                0                       # DTB hits
system.cpu0.itb.misses                              0                       # DTB misses
system.cpu0.itb.read_accesses                       0                       # DTB read accesses
system.cpu0.itb.read_hits                           0                       # DTB read hits
system.cpu0.itb.read_misses                         0                       # DTB read misses
system.cpu0.itb.write_accesses                      0                       # DTB write accesses
system.cpu0.itb.write_hits                          0                       # DTB write hits
system.cpu0.itb.write_misses                        0                       # DTB write misses
<<<<<<< HEAD
system.cpu0.memDep0.conflictingLoads          8234210                       # Number of conflicting loads.
system.cpu0.memDep0.conflictingStores         1531332                       # Number of conflicting stores.
system.cpu0.memDep0.insertedLoads           198401904                       # Number of loads inserted to the mem dependence unit.
[...]
system.cpu1.dcache.WriteReq_avg_mshr_miss_latency::total 52582.561596                       # average WriteReq mshr miss latency
system.cpu1.dcache.LoadLockedReq_hits::.cpu1.data        47472                       # number of LoadLockedReq hits
system.cpu1.dcache.LoadLockedReq_hits::total        47472                       # number of LoadLockedReq hits
system.cpu1.dcache.LoadLockedReq_misses::.cpu1.data          874                       # number of LoadLockedReq misses
system.cpu1.dcache.LoadLockedReq_misses::total          874                       # number of LoadLockedReq misses
system.cpu1.dcache.LoadLockedReq_miss_latency::.cpu1.data     41023000                       # number of LoadLockedReq miss cycles
system.cpu1.dcache.LoadLockedReq_miss_latency::total     41023000                       # number of LoadLockedReq miss cycles
system.cpu1.dcache.LoadLockedReq_accesses::.cpu1.data        48346                       # number of LoadLockedReq accesses(hits+misses)
system.cpu1.dcache.LoadLockedReq_accesses::total        48346                       # number of LoadLockedReq accesses(hits+misses)
system.cpu1.dcache.LoadLockedReq_miss_rate::.cpu1.data     0.018078                       # miss rate for LoadLockedReq accesses
system.cpu1.dcache.LoadLockedReq_miss_rate::total     0.018078                       # miss rate for LoadLockedReq accesses
system.cpu1.dcache.LoadLockedReq_avg_miss_latency::.cpu1.data 46937.070938                       # average LoadLockedReq miss latency
system.cpu1.dcache.LoadLockedReq_avg_miss_latency::total 46937.070938                       # average LoadLockedReq miss latency
system.cpu1.dcache.LoadLockedReq_mshr_hits::.cpu1.data          213                       # number of LoadLockedReq MSHR hits
system.cpu1.dcache.LoadLockedReq_mshr_hits::total          213                       # number of LoadLockedReq MSHR hits
system.cpu1.dcache.LoadLockedReq_mshr_misses::.cpu1.data          661                       # number of LoadLockedReq MSHR misses
system.cpu1.dcache.LoadLockedReq_mshr_misses::total          661                       # number of LoadLockedReq MSHR misses
system.cpu1.dcache.LoadLockedReq_mshr_miss_latency::.cpu1.data     24116000                       # number of LoadLockedReq MSHR miss cycles
system.cpu1.dcache.LoadLockedReq_mshr_miss_latency::total     24116000                       # number of LoadLockedReq MSHR miss cycles
system.cpu1.dcache.LoadLockedReq_mshr_miss_rate::.cpu1.data     0.013672                       # mshr miss rate for LoadLockedReq accesses
system.cpu1.dcache.LoadLockedReq_mshr_miss_rate::total     0.013672                       # mshr miss rate for LoadLockedReq accesses
system.cpu1.dcache.LoadLockedReq_avg_mshr_miss_latency::.cpu1.data 36484.114977                       # average LoadLockedReq mshr miss latency
system.cpu1.dcache.LoadLockedReq_avg_mshr_miss_latency::total 36484.114977                       # average LoadLockedReq mshr miss latency
system.cpu1.dcache.StoreCondReq_hits::.cpu1.data        42817                       # number of StoreCondReq hits
system.cpu1.dcache.StoreCondReq_hits::total        42817                       # number of StoreCondReq hits
system.cpu1.dcache.StoreCondReq_misses::.cpu1.data         5165                       # number of StoreCondReq misses
system.cpu1.dcache.StoreCondReq_misses::total         5165                       # number of StoreCondReq misses
system.cpu1.dcache.StoreCondReq_miss_latency::.cpu1.data     32698000                       # number of StoreCondReq miss cycles
system.cpu1.dcache.StoreCondReq_miss_latency::total     32698000                       # number of StoreCondReq miss cycles
system.cpu1.dcache.StoreCondReq_accesses::.cpu1.data        47982                       # number of StoreCondReq accesses(hits+misses)
system.cpu1.dcache.StoreCondReq_accesses::total        47982                       # number of StoreCondReq accesses(hits+misses)
system.cpu1.dcache.StoreCondReq_miss_rate::.cpu1.data     0.107645                       # miss rate for StoreCondReq accesses
system.cpu1.dcache.StoreCondReq_miss_rate::total     0.107645                       # miss rate for StoreCondReq accesses
system.cpu1.dcache.StoreCondReq_avg_miss_latency::.cpu1.data  6330.687318                       # average StoreCondReq miss latency
system.cpu1.dcache.StoreCondReq_avg_miss_latency::total  6330.687318                       # average StoreCondReq miss latency
system.cpu1.dcache.StoreCondReq_mshr_misses::.cpu1.data         5066                       # number of StoreCondReq MSHR misses
system.cpu1.dcache.StoreCondReq_mshr_misses::total         5066                       # number of StoreCondReq MSHR misses
system.cpu1.dcache.StoreCondReq_mshr_miss_latency::.cpu1.data     27674000                       # number of StoreCondReq MSHR miss cycles
system.cpu1.dcache.StoreCondReq_mshr_miss_latency::total     27674000                       # number of StoreCondReq MSHR miss cycles
system.cpu1.dcache.StoreCondReq_mshr_miss_rate::.cpu1.data     0.105581                       # mshr miss rate for StoreCondReq accesses
system.cpu1.dcache.StoreCondReq_mshr_miss_rate::total     0.105581                       # mshr miss rate for StoreCondReq accesses
system.cpu1.dcache.StoreCondReq_avg_mshr_miss_latency::.cpu1.data  5462.692460                       # average StoreCondReq mshr miss latency
system.cpu1.dcache.StoreCondReq_avg_mshr_miss_latency::total  5462.692460                       # average StoreCondReq mshr miss latency
system.cpu1.dcache.StoreCondFailReq_miss_latency::.cpu1.data       710000                       # number of StoreCondFailReq miss cycles
system.cpu1.dcache.StoreCondFailReq_miss_latency::total       710000                       # number of StoreCondFailReq miss cycles
system.cpu1.dcache.StoreCondFailReq_avg_miss_latency::.cpu1.data          inf                       # average StoreCondFailReq miss latency
system.cpu1.dcache.StoreCondFailReq_avg_miss_latency::total          inf                       # average StoreCondFailReq miss latency
system.cpu1.dcache.StoreCondFailReq_mshr_miss_latency::.cpu1.data       668000                       # number of StoreCondFailReq MSHR miss cycles
system.cpu1.dcache.StoreCondFailReq_mshr_miss_latency::total       668000                       # number of StoreCondFailReq MSHR miss cycles
system.cpu1.dcache.StoreCondFailReq_avg_mshr_miss_latency::.cpu1.data          inf                       # average StoreCondFailReq mshr miss latency
system.cpu1.dcache.StoreCondFailReq_avg_mshr_miss_latency::total          inf                       # average StoreCondFailReq mshr miss latency
system.cpu1.dcache.SwapReq_hits::.cpu1.data         1628                       # number of SwapReq hits
system.cpu1.dcache.SwapReq_hits::total           1628                       # number of SwapReq hits
system.cpu1.dcache.SwapReq_misses::.cpu1.data         2796                       # number of SwapReq misses
system.cpu1.dcache.SwapReq_misses::total         2796                       # number of SwapReq misses
system.cpu1.dcache.SwapReq_miss_latency::.cpu1.data     63283000                       # number of SwapReq miss cycles
system.cpu1.dcache.SwapReq_miss_latency::total     63283000                       # number of SwapReq miss cycles
system.cpu1.dcache.SwapReq_accesses::.cpu1.data         4424                       # number of SwapReq accesses(hits+misses)
system.cpu1.dcache.SwapReq_accesses::total         4424                       # number of SwapReq accesses(hits+misses)
system.cpu1.dcache.SwapReq_miss_rate::.cpu1.data     0.632007                       # miss rate for SwapReq accesses
system.cpu1.dcache.SwapReq_miss_rate::total     0.632007                       # miss rate for SwapReq accesses
system.cpu1.dcache.SwapReq_avg_miss_latency::.cpu1.data 22633.404864                       # average SwapReq miss latency
system.cpu1.dcache.SwapReq_avg_miss_latency::total 22633.404864                       # average SwapReq miss latency
system.cpu1.dcache.SwapReq_mshr_hits::.cpu1.data            3                       # number of SwapReq MSHR hits
system.cpu1.dcache.SwapReq_mshr_hits::total            3                       # number of SwapReq MSHR hits
system.cpu1.dcache.SwapReq_mshr_misses::.cpu1.data         2793                       # number of SwapReq MSHR misses
system.cpu1.dcache.SwapReq_mshr_misses::total         2793                       # number of SwapReq MSHR misses
system.cpu1.dcache.SwapReq_mshr_miss_latency::.cpu1.data     60476500                       # number of SwapReq MSHR miss cycles
system.cpu1.dcache.SwapReq_mshr_miss_latency::total     60476500                       # number of SwapReq MSHR miss cycles
system.cpu1.dcache.SwapReq_mshr_miss_rate::.cpu1.data     0.631329                       # mshr miss rate for SwapReq accesses
system.cpu1.dcache.SwapReq_mshr_miss_rate::total     0.631329                       # mshr miss rate for SwapReq accesses
system.cpu1.dcache.SwapReq_avg_mshr_miss_latency::.cpu1.data 21652.882206                       # average SwapReq mshr miss latency
system.cpu1.dcache.SwapReq_avg_mshr_miss_latency::total 21652.882206                       # average SwapReq mshr miss latency
system.cpu1.dcache.tags.pwrStateResidencyTicks::UNDEFINED  68274825000                       # Cumulative time (in ticks) in various power states
system.cpu1.dcache.tags.tagsinuse           31.420891                       # Cycle average of tags in use
system.cpu1.dcache.tags.total_refs           18545469                       # Total number of references to valid blocks.
system.cpu1.dcache.tags.sampled_refs          1247627                       # Sample count of references to valid blocks.
system.cpu1.dcache.tags.avg_refs            14.864594                       # Average number of references to valid blocks.
system.cpu1.dcache.tags.warmup_cycle                0                       # Cycle when the warmup percentage was hit.
system.cpu1.dcache.tags.occ_blocks::.cpu1.data    31.420891                       # Average occupied blocks per requestor
system.cpu1.dcache.tags.occ_percent::.cpu1.data     0.981903                       # Average percentage of cache occupancy
system.cpu1.dcache.tags.occ_percent::total     0.981903                       # Average percentage of cache occupancy
system.cpu1.dcache.tags.occ_task_id_blocks::1024           28                       # Occupied blocks per task id
system.cpu1.dcache.tags.age_task_id_blocks_1024::1           28                       # Occupied blocks per task id
system.cpu1.dcache.tags.occ_task_id_percent::1024     0.875000                       # Percentage of cache occupancy per task id
system.cpu1.dcache.tags.tag_accesses         46489848                       # Number of tag accesses
system.cpu1.dcache.tags.data_accesses        46489848                       # Number of data accesses
system.cpu_clk_domain.clock                       500                       # Clock period in ticks
system.tol2bus.pwrStateResidencyTicks::UNDEFINED  68274825000                       # Cumulative time (in ticks) in various power states
system.tol2bus.trans_dist::ReadResp           2582557                       # Transaction distribution
system.tol2bus.trans_dist::WritebackDirty       817798                       # Transaction distribution
system.tol2bus.trans_dist::WritebackClean      2237946                       # Transaction distribution
system.tol2bus.trans_dist::CleanEvict         5724686                       # Transaction distribution
system.tol2bus.trans_dist::HardPFReq          4492787                       # Transaction distribution
system.tol2bus.trans_dist::HardPFResp               4                       # Transaction distribution
system.tol2bus.trans_dist::UpgradeReq           24527                       # Transaction distribution
system.tol2bus.trans_dist::SCUpgradeReq         10462                       # Transaction distribution
system.tol2bus.trans_dist::UpgradeResp          34989                       # Transaction distribution
system.tol2bus.trans_dist::SCUpgradeFailReq           67                       # Transaction distribution
system.tol2bus.trans_dist::UpgradeFailResp           67                       # Transaction distribution
system.tol2bus.trans_dist::ReadExReq           140700                       # Transaction distribution
system.tol2bus.trans_dist::ReadExResp          140701                       # Transaction distribution
system.tol2bus.trans_dist::ReadCleanReq        131376                       # Transaction distribution
system.tol2bus.trans_dist::ReadSharedReq      2451180                       # Transaction distribution
system.tol2bus.trans_dist::InvalidateReq          175                       # Transaction distribution
system.tol2bus.trans_dist::InvalidateResp          175                       # Transaction distribution
system.tol2bus.pkt_count_system.cpu0.icache.mem_side::system.l2.cpu_side       327150                       # Packet count per connected master and slave (bytes)
system.tol2bus.pkt_count_system.cpu0.dcache.mem_side::system.l2.cpu_side      4012087                       # Packet count per connected master and slave (bytes)
system.tol2bus.pkt_count_system.cpu1.icache.mem_side::system.l2.cpu_side        66906                       # Packet count per connected master and slave (bytes)
system.tol2bus.pkt_count_system.cpu1.dcache.mem_side::system.l2.cpu_side      3720736                       # Packet count per connected master and slave (bytes)
system.tol2bus.pkt_count::total               8126879                       # Packet count per connected master and slave (bytes)
system.tol2bus.pkt_size_system.cpu0.icache.mem_side::system.l2.cpu_side     13956864                       # Cumulative packet size per connected master and slave (bytes)
system.tol2bus.pkt_size_system.cpu0.dcache.mem_side::system.l2.cpu_side    169397248                       # Cumulative packet size per connected master and slave (bytes)
system.tol2bus.pkt_size_system.cpu1.icache.mem_side::system.l2.cpu_side      2854656                       # Cumulative packet size per connected master and slave (bytes)
system.tol2bus.pkt_size_system.cpu1.dcache.mem_side::system.l2.cpu_side    156977728                       # Cumulative packet size per connected master and slave (bytes)
system.tol2bus.pkt_size::total              343186496                       # Cumulative packet size per connected master and slave (bytes)
system.tol2bus.snoops                        10663322                       # Total snoops (count)
system.tol2bus.snoopTraffic                  26674432                       # Total snoop traffic (bytes)
system.tol2bus.snoop_fanout::samples         13350365                       # Request fanout histogram
system.tol2bus.snoop_fanout::mean            0.185732                       # Request fanout histogram
system.tol2bus.snoop_fanout::stdev           0.415740                       # Request fanout histogram
system.tol2bus.snoop_fanout::underflows             0      0.00%      0.00% # Request fanout histogram
system.tol2bus.snoop_fanout::0               11014973     82.51%     82.51% # Request fanout histogram
system.tol2bus.snoop_fanout::1                2191210     16.41%     98.92% # Request fanout histogram
system.tol2bus.snoop_fanout::2                 144166      1.08%    100.00% # Request fanout histogram
system.tol2bus.snoop_fanout::3                     16      0.00%    100.00% # Request fanout histogram
system.tol2bus.snoop_fanout::4                      0      0.00%    100.00% # Request fanout histogram
>>>>>>> 6be7a0502e78ebf80a09b838e3e9c0d652379c93
system.tol2bus.snoop_fanout::5                      0      0.00%    100.00% # Request fanout histogram
system.tol2bus.snoop_fanout::6                      0      0.00%    100.00% # Request fanout histogram
system.tol2bus.snoop_fanout::7                      0      0.00%    100.00% # Request fanout histogram
system.tol2bus.snoop_fanout::8                      0      0.00%    100.00% # Request fanout histogram
system.tol2bus.snoop_fanout::overflows              0      0.00%    100.00% # Request fanout histogram
system.tol2bus.snoop_fanout::min_value              0                       # Request fanout histogram
<<<<<<< HEAD
system.tol2bus.snoop_fanout::max_value              4                       # Request fanout histogram
system.tol2bus.snoop_fanout::total           14203177                       # Request fanout histogram
system.tol2bus.reqLayer0.occupancy         5558099499                       # Layer occupancy (ticks)
system.tol2bus.reqLayer0.utilization             12.6                       # Layer utilization (%)
system.tol2bus.respLayer5.occupancy         962156310                       # Layer occupancy (ticks)
system.tol2bus.respLayer5.utilization             2.2                       # Layer utilization (%)
system.tol2bus.respLayer4.occupancy          36803245                       # Layer occupancy (ticks)
system.tol2bus.respLayer4.utilization             0.1                       # Layer utilization (%)
system.tol2bus.respLayer7.occupancy         944316291                       # Layer occupancy (ticks)
system.tol2bus.respLayer7.utilization             2.1                       # Layer utilization (%)
system.tol2bus.respLayer6.occupancy          35859137                       # Layer occupancy (ticks)
system.tol2bus.respLayer6.utilization             0.1                       # Layer utilization (%)
system.tol2bus.respLayer1.occupancy        1070831524                       # Layer occupancy (ticks)
system.tol2bus.respLayer1.utilization             2.4                       # Layer utilization (%)
system.tol2bus.respLayer0.occupancy         165497941                       # Layer occupancy (ticks)
system.tol2bus.respLayer0.utilization             0.4                       # Layer utilization (%)
system.tol2bus.respLayer3.occupancy         970587415                       # Layer occupancy (ticks)
system.tol2bus.respLayer3.utilization             2.2                       # Layer utilization (%)
system.tol2bus.respLayer2.occupancy          36658752                       # Layer occupancy (ticks)
system.tol2bus.respLayer2.utilization             0.1                       # Layer utilization (%)
system.tol2bus.snoopLayer0.occupancy            10503                       # Layer occupancy (ticks)
=======
system.tol2bus.snoop_fanout::max_value              3                       # Request fanout histogram
system.tol2bus.snoop_fanout::total           13350365                       # Request fanout histogram
system.tol2bus.reqLayer0.occupancy         5402255044                       # Layer occupancy (ticks)
system.tol2bus.reqLayer0.utilization              7.9                       # Layer utilization (%)
system.tol2bus.respLayer1.occupancy        2028973392                       # Layer occupancy (ticks)
system.tol2bus.respLayer1.utilization             3.0                       # Layer utilization (%)
system.tol2bus.respLayer0.occupancy         163725773                       # Layer occupancy (ticks)
system.tol2bus.respLayer0.utilization             0.2                       # Layer utilization (%)
system.tol2bus.respLayer3.occupancy        1883366042                       # Layer occupancy (ticks)
system.tol2bus.respLayer3.utilization             2.8                       # Layer utilization (%)
system.tol2bus.respLayer2.occupancy          33699007                       # Layer occupancy (ticks)
system.tol2bus.respLayer2.utilization             0.0                       # Layer utilization (%)
system.tol2bus.snoopLayer0.occupancy             6000                       # Layer occupancy (ticks)
>>>>>>> 6be7a0502e78ebf80a09b838e3e9c0d652379c93
system.tol2bus.snoopLayer0.utilization            0.0                       # Layer utilization (%)

---------- End Simulation Statistics   ----------
