
---------- Begin Simulation Statistics ----------
final_tick                               2180933960000                       # Number of ticks from beginning of simulation (restored from checkpoints and never reset)
host_inst_rate                                  59636                       # Simulator instruction rate (inst/s)
host_mem_usage                                 703660                       # Number of bytes of host memory used
host_op_rate                                    59829                       # Simulator op (including micro ops) rate (op/s)
host_seconds                                 39487.06                       # Real time elapsed on the host
host_tick_rate                               55231610                       # Simulator tick rate (ticks/s)
sim_freq                                 1000000000000                       # Frequency of simulated ticks
sim_insts                                  2354846995                       # Number of instructions simulated
sim_ops                                    2362455909                       # Number of ops (including micro ops) simulated
sim_seconds                                  2.180934                       # Number of seconds simulated
sim_ticks                                2180933960000                       # Number of ticks simulated
system.cpu0.branchPred.BTBCorrect                   0                       # Number of correct BTB predictions (this stat may not work properly.
system.cpu0.branchPred.BTBHitPct            87.401004                       # BTB Hit Percentage
system.cpu0.branchPred.BTBHits              292667941                       # Number of BTB hits
system.cpu0.branchPred.BTBLookups           334856497                       # Number of BTB lookups
system.cpu0.branchPred.RASInCorrect                 0                       # Number of incorrect RAS predictions.
system.cpu0.branchPred.condIncorrect         19482323                       # Number of conditional branches incorrect
system.cpu0.branchPred.condPredicted        461694379                       # Number of conditional branches predicted
system.cpu0.branchPred.indirectHits          39071566                       # Number of indirect target hits.
system.cpu0.branchPred.indirectLookups       39679591                       # Number of indirect predictor lookups.
system.cpu0.branchPred.indirectMisses          608025                       # Number of indirect misses.
system.cpu0.branchPred.lookups              587235377                       # Number of BP lookups
system.cpu0.branchPred.usedRAS                      0                       # Number of times the RAS was used to get a target.
system.cpu0.branchPredindirectMispredicted      3972363                       # Number of mispredicted indirect branches.
system.cpu0.commit.amos                       3801853                       # Number of atomic instructions committed
system.cpu0.commit.branchMispredicts         13758024                       # The number of times a branch was mispredicted
system.cpu0.commit.branches                 555029057                       # Number of branches committed
system.cpu0.commit.bw_lim_events             55960130                       # number cycles where commit BW limit reached
system.cpu0.commit.commitNonSpecStalls       11419486                       # The number of times commit has been forced to stall to communicate backwards
system.cpu0.commit.commitSquashedInsts       97006892                       # The number of squashed insts skipped by commit
system.cpu0.commit.committedInsts          2224780246                       # Number of instructions committed
system.cpu0.commit.committedOps            2228587400                       # Number of ops (including micro ops) committed
system.cpu0.commit.committed_per_cycle::samples   4074920351                       # Number of insts commited each cycle
system.cpu0.commit.committed_per_cycle::mean     0.546903                       # Number of insts commited each cycle
system.cpu0.commit.committed_per_cycle::stdev     1.280565                       # Number of insts commited each cycle
system.cpu0.commit.committed_per_cycle::underflows            0      0.00%      0.00% # Number of insts commited each cycle
system.cpu0.commit.committed_per_cycle::0   2970410369     72.89%     72.89% # Number of insts commited each cycle
system.cpu0.commit.committed_per_cycle::1    655073347     16.08%     88.97% # Number of insts commited each cycle
system.cpu0.commit.committed_per_cycle::2    168547512      4.14%     93.11% # Number of insts commited each cycle
system.cpu0.commit.committed_per_cycle::3    162236329      3.98%     97.09% # Number of insts commited each cycle
system.cpu0.commit.committed_per_cycle::4     35791911      0.88%     97.97% # Number of insts commited each cycle
system.cpu0.commit.committed_per_cycle::5     11093707      0.27%     98.24% # Number of insts commited each cycle
system.cpu0.commit.committed_per_cycle::6      7256499      0.18%     98.42% # Number of insts commited each cycle
system.cpu0.commit.committed_per_cycle::7      8550547      0.21%     98.63% # Number of insts commited each cycle
system.cpu0.commit.committed_per_cycle::8     55960130      1.37%    100.00% # Number of insts commited each cycle
system.cpu0.commit.committed_per_cycle::overflows            0      0.00%    100.00% # Number of insts commited each cycle
system.cpu0.commit.committed_per_cycle::min_value            0                       # Number of insts commited each cycle
system.cpu0.commit.committed_per_cycle::max_value            8                       # Number of insts commited each cycle
system.cpu0.commit.committed_per_cycle::total   4074920351                       # Number of insts commited each cycle
system.cpu0.commit.fp_insts                        50                       # Number of committed floating point instructions.
system.cpu0.commit.function_calls            44163115                       # Number of function calls committed.
system.cpu0.commit.int_insts               2150880947                       # Number of committed integer instructions.
system.cpu0.commit.loads                    691544169                       # Number of loads committed
system.cpu0.commit.membars                    7608889                       # Number of memory barriers committed
system.cpu0.commit.op_class_0::No_OpClass      7608895      0.34%      0.34% # Class of committed instruction
system.cpu0.commit.op_class_0::IntAlu      1238760679     55.59%     55.93% # Class of committed instruction
system.cpu0.commit.op_class_0::IntMult       18316825      0.82%     56.75% # Class of committed instruction
system.cpu0.commit.op_class_0::IntDiv         3801411      0.17%     56.92% # Class of committed instruction
system.cpu0.commit.op_class_0::FloatAdd             0      0.00%     56.92% # Class of committed instruction
system.cpu0.commit.op_class_0::FloatCmp             4      0.00%     56.92% # Class of committed instruction
system.cpu0.commit.op_class_0::FloatCvt            12      0.00%     56.92% # Class of committed instruction
system.cpu0.commit.op_class_0::FloatMult            0      0.00%     56.92% # Class of committed instruction
system.cpu0.commit.op_class_0::FloatMultAcc            0      0.00%     56.92% # Class of committed instruction
system.cpu0.commit.op_class_0::FloatDiv             2      0.00%     56.92% # Class of committed instruction
system.cpu0.commit.op_class_0::FloatMisc            4      0.00%     56.92% # Class of committed instruction
system.cpu0.commit.op_class_0::FloatSqrt            0      0.00%     56.92% # Class of committed instruction
system.cpu0.commit.op_class_0::SimdAdd              0      0.00%     56.92% # Class of committed instruction
system.cpu0.commit.op_class_0::SimdAddAcc            0      0.00%     56.92% # Class of committed instruction
system.cpu0.commit.op_class_0::SimdAlu              0      0.00%     56.92% # Class of committed instruction
system.cpu0.commit.op_class_0::SimdCmp              0      0.00%     56.92% # Class of committed instruction
system.cpu0.commit.op_class_0::SimdCvt              0      0.00%     56.92% # Class of committed instruction
system.cpu0.commit.op_class_0::SimdMisc             0      0.00%     56.92% # Class of committed instruction
system.cpu0.commit.op_class_0::SimdMult             0      0.00%     56.92% # Class of committed instruction
system.cpu0.commit.op_class_0::SimdMultAcc            0      0.00%     56.92% # Class of committed instruction
system.cpu0.commit.op_class_0::SimdShift            0      0.00%     56.92% # Class of committed instruction
system.cpu0.commit.op_class_0::SimdShiftAcc            0      0.00%     56.92% # Class of committed instruction
system.cpu0.commit.op_class_0::SimdDiv              0      0.00%     56.92% # Class of committed instruction
system.cpu0.commit.op_class_0::SimdSqrt             0      0.00%     56.92% # Class of committed instruction
system.cpu0.commit.op_class_0::SimdFloatAdd            0      0.00%     56.92% # Class of committed instruction
system.cpu0.commit.op_class_0::SimdFloatAlu            0      0.00%     56.92% # Class of committed instruction
system.cpu0.commit.op_class_0::SimdFloatCmp            0      0.00%     56.92% # Class of committed instruction
system.cpu0.commit.op_class_0::SimdFloatCvt            0      0.00%     56.92% # Class of committed instruction
system.cpu0.commit.op_class_0::SimdFloatDiv            0      0.00%     56.92% # Class of committed instruction
system.cpu0.commit.op_class_0::SimdFloatMisc            0      0.00%     56.92% # Class of committed instruction
system.cpu0.commit.op_class_0::SimdFloatMult            0      0.00%     56.92% # Class of committed instruction
system.cpu0.commit.op_class_0::SimdFloatMultAcc            0      0.00%     56.92% # Class of committed instruction
system.cpu0.commit.op_class_0::SimdFloatSqrt            0      0.00%     56.92% # Class of committed instruction
system.cpu0.commit.op_class_0::SimdReduceAdd            0      0.00%     56.92% # Class of committed instruction
system.cpu0.commit.op_class_0::SimdReduceAlu            0      0.00%     56.92% # Class of committed instruction
system.cpu0.commit.op_class_0::SimdReduceCmp            0      0.00%     56.92% # Class of committed instruction
system.cpu0.commit.op_class_0::SimdFloatReduceAdd            0      0.00%     56.92% # Class of committed instruction
system.cpu0.commit.op_class_0::SimdFloatReduceCmp            0      0.00%     56.92% # Class of committed instruction
system.cpu0.commit.op_class_0::SimdAes              0      0.00%     56.92% # Class of committed instruction
system.cpu0.commit.op_class_0::SimdAesMix            0      0.00%     56.92% # Class of committed instruction
system.cpu0.commit.op_class_0::SimdSha1Hash            0      0.00%     56.92% # Class of committed instruction
system.cpu0.commit.op_class_0::SimdSha1Hash2            0      0.00%     56.92% # Class of committed instruction
system.cpu0.commit.op_class_0::SimdSha256Hash            0      0.00%     56.92% # Class of committed instruction
system.cpu0.commit.op_class_0::SimdSha256Hash2            0      0.00%     56.92% # Class of committed instruction
system.cpu0.commit.op_class_0::SimdShaSigma2            0      0.00%     56.92% # Class of committed instruction
system.cpu0.commit.op_class_0::SimdShaSigma3            0      0.00%     56.92% # Class of committed instruction
system.cpu0.commit.op_class_0::SimdPredAlu            0      0.00%     56.92% # Class of committed instruction
system.cpu0.commit.op_class_0::MemRead      695346014     31.20%     88.12% # Class of committed instruction
system.cpu0.commit.op_class_0::MemWrite     264753526     11.88%    100.00% # Class of committed instruction
system.cpu0.commit.op_class_0::FloatMemRead            8      0.00%    100.00% # Class of committed instruction
system.cpu0.commit.op_class_0::FloatMemWrite           20      0.00%    100.00% # Class of committed instruction
system.cpu0.commit.op_class_0::IprAccess            0      0.00%    100.00% # Class of committed instruction
system.cpu0.commit.op_class_0::InstPrefetch            0      0.00%    100.00% # Class of committed instruction
system.cpu0.commit.op_class_0::total       2228587400                       # Class of committed instruction
system.cpu0.commit.refs                     960099568                       # Number of memory references committed
system.cpu0.commit.swp_count                        0                       # Number of s/w prefetches committed
system.cpu0.commit.vec_insts                        0                       # Number of committed Vector instructions.
system.cpu0.committedInsts                 2224780246                       # Number of Instructions Simulated
system.cpu0.committedOps                   2228587400                       # Number of Ops (including micro ops) Simulated
system.cpu0.cpi                              1.956634                       # CPI: Cycles Per Instruction
system.cpu0.cpi_total                        1.956634                       # CPI: Total CPI of All Threads
system.cpu0.decode.BlockedCycles            731588590                       # Number of cycles decode is blocked
system.cpu0.decode.BranchMispred              5747761                       # Number of times decode detected a branch misprediction
system.cpu0.decode.BranchResolved           291349901                       # Number of times decode resolved a branch
system.cpu0.decode.DecodedInsts            2361797363                       # Number of instructions handled by decode
system.cpu0.decode.IdleCycles              1722796772                       # Number of cycles decode is idle
system.cpu0.decode.RunCycles               1615992914                       # Number of cycles decode is running
system.cpu0.decode.SquashCycles              13785013                       # Number of cycles decode is squashing
system.cpu0.decode.SquashedInsts             18503206                       # Number of squashed instructions handled by decode
system.cpu0.decode.UnblockCycles             10938467                       # Number of cycles decode is unblocking
system.cpu0.dtb.accesses                            0                       # DTB accesses
system.cpu0.dtb.hits                                0                       # DTB hits
system.cpu0.dtb.misses                              0                       # DTB misses
system.cpu0.dtb.read_accesses                       0                       # DTB read accesses
system.cpu0.dtb.read_hits                           0                       # DTB read hits
system.cpu0.dtb.read_misses                         0                       # DTB read misses
system.cpu0.dtb.write_accesses                      0                       # DTB write accesses
system.cpu0.dtb.write_hits                          0                       # DTB write hits
system.cpu0.dtb.write_misses                        0                       # DTB write misses
system.cpu0.fetch.Branches                  587235377                       # Number of branches that fetch encountered
system.cpu0.fetch.CacheLines                422716856                       # Number of cache lines fetched
system.cpu0.fetch.Cycles                   2386654006                       # Number of cycles fetch has run and was not squashing or blocked
system.cpu0.fetch.IcacheSquashes              5705872                       # Number of outstanding Icache misses that were squashed
system.cpu0.fetch.IcacheWaitRetryStallCycles          101                       # Number of stall cycles due to full MSHR
system.cpu0.fetch.Insts                    2390787700                       # Number of instructions fetch has processed
system.cpu0.fetch.MiscStallCycles                  52                       # Number of cycles fetch has spent waiting on interrupts, or bad addresses, or out of MSHRs
system.cpu0.fetch.PendingTrapStallCycles          237                       # Number of stall cycles due to pending traps
system.cpu0.fetch.SquashCycles               39018696                       # Number of cycles fetch has spent squashing
system.cpu0.fetch.branchRate                 0.134901                       # Number of branch fetches per cycle
system.cpu0.fetch.icacheStallCycles        1688938012                       # Number of cycles fetch is stalled on an Icache miss
system.cpu0.fetch.predictedBranches         331739507                       # Number of branches that fetch has predicted taken
system.cpu0.fetch.rate                       0.549217                       # Number of inst fetches per cycle
system.cpu0.fetch.rateDist::samples        4095101756                       # Number of instructions fetched each cycle (Total)
system.cpu0.fetch.rateDist::mean             0.584746                       # Number of instructions fetched each cycle (Total)
system.cpu0.fetch.rateDist::stdev            0.886460                       # Number of instructions fetched each cycle (Total)
system.cpu0.fetch.rateDist::underflows              0      0.00%      0.00% # Number of instructions fetched each cycle (Total)
system.cpu0.fetch.rateDist::0              2412945395     58.92%     58.92% # Number of instructions fetched each cycle (Total)
system.cpu0.fetch.rateDist::1              1246088937     30.43%     89.35% # Number of instructions fetched each cycle (Total)
system.cpu0.fetch.rateDist::2               229245398      5.60%     94.95% # Number of instructions fetched each cycle (Total)
system.cpu0.fetch.rateDist::3               167610482      4.09%     99.04% # Number of instructions fetched each cycle (Total)
system.cpu0.fetch.rateDist::4                24349190      0.59%     99.64% # Number of instructions fetched each cycle (Total)
system.cpu0.fetch.rateDist::5                 7012924      0.17%     99.81% # Number of instructions fetched each cycle (Total)
system.cpu0.fetch.rateDist::6                  229798      0.01%     99.81% # Number of instructions fetched each cycle (Total)
system.cpu0.fetch.rateDist::7                 7613017      0.19%    100.00% # Number of instructions fetched each cycle (Total)
system.cpu0.fetch.rateDist::8                    6615      0.00%    100.00% # Number of instructions fetched each cycle (Total)
system.cpu0.fetch.rateDist::overflows               0      0.00%    100.00% # Number of instructions fetched each cycle (Total)
system.cpu0.fetch.rateDist::min_value               0                       # Number of instructions fetched each cycle (Total)
system.cpu0.fetch.rateDist::max_value               8                       # Number of instructions fetched each cycle (Total)
system.cpu0.fetch.rateDist::total          4095101756                       # Number of instructions fetched each cycle (Total)
system.cpu0.fp_regfile_reads                       44                       # number of floating regfile reads
system.cpu0.fp_regfile_writes                      23                       # number of floating regfile writes
system.cpu0.idleCycles                      257978458                       # Total number of cycles that the CPU has spent unscheduled due to idling
system.cpu0.iew.branchMispredicts            13950103                       # Number of branch mispredicts detected at execute
system.cpu0.iew.exec_branches               567316919                       # Number of branches executed
system.cpu0.iew.exec_nop                            0                       # number of nop insts executed
system.cpu0.iew.exec_rate                    0.529188                       # Inst execution rate
system.cpu0.iew.exec_refs                  1002145833                       # number of memory reference insts executed
system.cpu0.iew.exec_stores                 275633527                       # Number of stores executed
system.cpu0.iew.exec_swp                            0                       # number of swp insts executed
system.cpu0.iew.iewBlockCycles              589017387                       # Number of cycles IEW is blocking
system.cpu0.iew.iewDispLoadInsts            728685533                       # Number of dispatched load instructions
system.cpu0.iew.iewDispNonSpecInsts           3810936                       # Number of dispatched non-speculative instructions
system.cpu0.iew.iewDispSquashedInsts          6805896                       # Number of squashed instructions skipped by dispatch
system.cpu0.iew.iewDispStoreInsts           277454235                       # Number of dispatched store instructions
system.cpu0.iew.iewDispatchedInsts         2325549455                       # Number of instructions dispatched to IQ
system.cpu0.iew.iewExecLoadInsts            726512306                       # Number of load instructions executed
system.cpu0.iew.iewExecSquashedInsts         11034955                       # Number of squashed instructions skipped in execute
system.cpu0.iew.iewExecutedInsts           2303597526                       # Number of executed instructions
system.cpu0.iew.iewIQFullEvents               3601744                       # Number of times the IQ has become full, causing a stall
system.cpu0.iew.iewIdleCycles                       0                       # Number of cycles IEW is idle
system.cpu0.iew.iewLSQFullEvents             13344599                       # Number of times the LSQ has become full, causing a stall
system.cpu0.iew.iewSquashCycles              13785013                       # Number of cycles IEW is squashing
system.cpu0.iew.iewUnblockCycles             20940707                       # Number of cycles IEW is unblocking
system.cpu0.iew.lsq.thread0.blockedLoads            0                       # Number of blocked loads due to partial load-store forwarding
system.cpu0.iew.lsq.thread0.cacheBlocked       239284                       # Number of times an access to memory failed due to the cache being blocked
system.cpu0.iew.lsq.thread0.forwLoads        34151159                       # Number of loads that had data forwarded from stores
system.cpu0.iew.lsq.thread0.ignoredResponses        61445                       # Number of memory responses ignored because the instruction is squashed
system.cpu0.iew.lsq.thread0.invAddrLoads            0                       # Number of loads ignored due to an invalid address
system.cpu0.iew.lsq.thread0.invAddrSwpfs            0                       # Number of software prefetches ignored due to an invalid address
system.cpu0.iew.lsq.thread0.memOrderViolation        26689                       # Number of memory ordering violations
system.cpu0.iew.lsq.thread0.rescheduledLoads      8841753                       # Number of loads that were rescheduled
system.cpu0.iew.lsq.thread0.squashedLoads     37141364                       # Number of loads squashed
system.cpu0.iew.lsq.thread0.squashedStores      8898836                       # Number of stores squashed
system.cpu0.iew.memOrderViolationEvents         26689                       # Number of memory order violations
system.cpu0.iew.predictedNotTakenIncorrect      2002383                       # Number of branches that were predicted not taken incorrectly
system.cpu0.iew.predictedTakenIncorrect      11947720                       # Number of branches that were predicted taken incorrectly
system.cpu0.iew.wb_consumers                957082065                       # num instructions consuming a value
system.cpu0.iew.wb_count                   2286510985                       # cumulative count of insts written-back
system.cpu0.iew.wb_fanout                    0.891894                       # average fanout of values written-back
system.cpu0.iew.wb_producers                853615906                       # num instructions producing a value
system.cpu0.iew.wb_rate                      0.525263                       # insts written-back per cycle
system.cpu0.iew.wb_sent                    2286686407                       # cumulative count of insts sent to commit
system.cpu0.int_regfile_reads              2815597896                       # number of integer regfile reads
system.cpu0.int_regfile_writes             1460338917                       # number of integer regfile writes
system.cpu0.ipc                              0.511082                       # IPC: Instructions Per Cycle
system.cpu0.ipc_total                        0.511082                       # IPC: Total IPC of All Threads
system.cpu0.iq.FU_type_0::No_OpClass          7611865      0.33%      0.33% # Type of FU issued
system.cpu0.iq.FU_type_0::IntAlu           1277599135     55.20%     55.53% # Type of FU issued
system.cpu0.iq.FU_type_0::IntMult            18332467      0.79%     56.32% # Type of FU issued
system.cpu0.iq.FU_type_0::IntDiv              3802438      0.16%     56.48% # Type of FU issued
system.cpu0.iq.FU_type_0::FloatAdd                  0      0.00%     56.48% # Type of FU issued
system.cpu0.iq.FU_type_0::FloatCmp                  4      0.00%     56.48% # Type of FU issued
system.cpu0.iq.FU_type_0::FloatCvt                 12      0.00%     56.48% # Type of FU issued
system.cpu0.iq.FU_type_0::FloatMult                 0      0.00%     56.48% # Type of FU issued
system.cpu0.iq.FU_type_0::FloatMultAcc              0      0.00%     56.48% # Type of FU issued
system.cpu0.iq.FU_type_0::FloatDiv                  2      0.00%     56.48% # Type of FU issued
system.cpu0.iq.FU_type_0::FloatMisc                 4      0.00%     56.48% # Type of FU issued
system.cpu0.iq.FU_type_0::FloatSqrt                 0      0.00%     56.48% # Type of FU issued
system.cpu0.iq.FU_type_0::SimdAdd                   0      0.00%     56.48% # Type of FU issued
system.cpu0.iq.FU_type_0::SimdAddAcc                0      0.00%     56.48% # Type of FU issued
system.cpu0.iq.FU_type_0::SimdAlu                   0      0.00%     56.48% # Type of FU issued
system.cpu0.iq.FU_type_0::SimdCmp                   0      0.00%     56.48% # Type of FU issued
system.cpu0.iq.FU_type_0::SimdCvt                   0      0.00%     56.48% # Type of FU issued
system.cpu0.iq.FU_type_0::SimdMisc                  0      0.00%     56.48% # Type of FU issued
system.cpu0.iq.FU_type_0::SimdMult                  0      0.00%     56.48% # Type of FU issued
system.cpu0.iq.FU_type_0::SimdMultAcc               0      0.00%     56.48% # Type of FU issued
system.cpu0.iq.FU_type_0::SimdShift                 0      0.00%     56.48% # Type of FU issued
system.cpu0.iq.FU_type_0::SimdShiftAcc              0      0.00%     56.48% # Type of FU issued
system.cpu0.iq.FU_type_0::SimdDiv                   0      0.00%     56.48% # Type of FU issued
system.cpu0.iq.FU_type_0::SimdSqrt                  0      0.00%     56.48% # Type of FU issued
system.cpu0.iq.FU_type_0::SimdFloatAdd              0      0.00%     56.48% # Type of FU issued
system.cpu0.iq.FU_type_0::SimdFloatAlu              0      0.00%     56.48% # Type of FU issued
system.cpu0.iq.FU_type_0::SimdFloatCmp              0      0.00%     56.48% # Type of FU issued
system.cpu0.iq.FU_type_0::SimdFloatCvt              0      0.00%     56.48% # Type of FU issued
system.cpu0.iq.FU_type_0::SimdFloatDiv              0      0.00%     56.48% # Type of FU issued
system.cpu0.iq.FU_type_0::SimdFloatMisc             0      0.00%     56.48% # Type of FU issued
system.cpu0.iq.FU_type_0::SimdFloatMult             0      0.00%     56.48% # Type of FU issued
system.cpu0.iq.FU_type_0::SimdFloatMultAcc            0      0.00%     56.48% # Type of FU issued
system.cpu0.iq.FU_type_0::SimdFloatSqrt             0      0.00%     56.48% # Type of FU issued
system.cpu0.iq.FU_type_0::SimdReduceAdd             0      0.00%     56.48% # Type of FU issued
system.cpu0.iq.FU_type_0::SimdReduceAlu             0      0.00%     56.48% # Type of FU issued
system.cpu0.iq.FU_type_0::SimdReduceCmp             0      0.00%     56.48% # Type of FU issued
system.cpu0.iq.FU_type_0::SimdFloatReduceAdd            0      0.00%     56.48% # Type of FU issued
system.cpu0.iq.FU_type_0::SimdFloatReduceCmp            0      0.00%     56.48% # Type of FU issued
system.cpu0.iq.FU_type_0::SimdAes                   0      0.00%     56.48% # Type of FU issued
system.cpu0.iq.FU_type_0::SimdAesMix                0      0.00%     56.48% # Type of FU issued
system.cpu0.iq.FU_type_0::SimdSha1Hash              0      0.00%     56.48% # Type of FU issued
system.cpu0.iq.FU_type_0::SimdSha1Hash2             0      0.00%     56.48% # Type of FU issued
system.cpu0.iq.FU_type_0::SimdSha256Hash            0      0.00%     56.48% # Type of FU issued
system.cpu0.iq.FU_type_0::SimdSha256Hash2            0      0.00%     56.48% # Type of FU issued
system.cpu0.iq.FU_type_0::SimdShaSigma2             0      0.00%     56.48% # Type of FU issued
system.cpu0.iq.FU_type_0::SimdShaSigma3             0      0.00%     56.48% # Type of FU issued
system.cpu0.iq.FU_type_0::SimdPredAlu               0      0.00%     56.48% # Type of FU issued
system.cpu0.iq.FU_type_0::MemRead           735046427     31.76%     88.24% # Type of FU issued
system.cpu0.iq.FU_type_0::MemWrite          272240099     11.76%    100.00% # Type of FU issued
system.cpu0.iq.FU_type_0::FloatMemRead              9      0.00%    100.00% # Type of FU issued
system.cpu0.iq.FU_type_0::FloatMemWrite            20      0.00%    100.00% # Type of FU issued
system.cpu0.iq.FU_type_0::IprAccess                 0      0.00%    100.00% # Type of FU issued
system.cpu0.iq.FU_type_0::InstPrefetch              0      0.00%    100.00% # Type of FU issued
system.cpu0.iq.FU_type_0::total            2314632482                       # Type of FU issued
system.cpu0.iq.fp_alu_accesses                     53                       # Number of floating point alu accesses
system.cpu0.iq.fp_inst_queue_reads                104                       # Number of floating instruction queue reads
system.cpu0.iq.fp_inst_queue_wakeup_accesses           51                       # Number of floating instruction queue wakeup accesses
system.cpu0.iq.fp_inst_queue_writes                56                       # Number of floating instruction queue writes
system.cpu0.iq.fu_busy_cnt                    5017871                       # FU busy when requested
system.cpu0.iq.fu_busy_rate                  0.002168                       # FU busy rate (busy events/executed inst)
system.cpu0.iq.fu_full::No_OpClass                  0      0.00%      0.00% # attempts to use FU when none available
system.cpu0.iq.fu_full::IntAlu                 778585     15.52%     15.52% # attempts to use FU when none available
system.cpu0.iq.fu_full::IntMult                     0      0.00%     15.52% # attempts to use FU when none available
system.cpu0.iq.fu_full::IntDiv                      0      0.00%     15.52% # attempts to use FU when none available
system.cpu0.iq.fu_full::FloatAdd                    0      0.00%     15.52% # attempts to use FU when none available
system.cpu0.iq.fu_full::FloatCmp                    0      0.00%     15.52% # attempts to use FU when none available
system.cpu0.iq.fu_full::FloatCvt                    0      0.00%     15.52% # attempts to use FU when none available
system.cpu0.iq.fu_full::FloatMult                   0      0.00%     15.52% # attempts to use FU when none available
system.cpu0.iq.fu_full::FloatMultAcc                0      0.00%     15.52% # attempts to use FU when none available
system.cpu0.iq.fu_full::FloatDiv                    0      0.00%     15.52% # attempts to use FU when none available
system.cpu0.iq.fu_full::FloatMisc                   0      0.00%     15.52% # attempts to use FU when none available
system.cpu0.iq.fu_full::FloatSqrt                   0      0.00%     15.52% # attempts to use FU when none available
system.cpu0.iq.fu_full::SimdAdd                     0      0.00%     15.52% # attempts to use FU when none available
system.cpu0.iq.fu_full::SimdAddAcc                  0      0.00%     15.52% # attempts to use FU when none available
system.cpu0.iq.fu_full::SimdAlu                     0      0.00%     15.52% # attempts to use FU when none available
system.cpu0.iq.fu_full::SimdCmp                     0      0.00%     15.52% # attempts to use FU when none available
system.cpu0.iq.fu_full::SimdCvt                     0      0.00%     15.52% # attempts to use FU when none available
system.cpu0.iq.fu_full::SimdMisc                    0      0.00%     15.52% # attempts to use FU when none available
system.cpu0.iq.fu_full::SimdMult                    0      0.00%     15.52% # attempts to use FU when none available
system.cpu0.iq.fu_full::SimdMultAcc                 0      0.00%     15.52% # attempts to use FU when none available
system.cpu0.iq.fu_full::SimdShift                   0      0.00%     15.52% # attempts to use FU when none available
system.cpu0.iq.fu_full::SimdShiftAcc                0      0.00%     15.52% # attempts to use FU when none available
system.cpu0.iq.fu_full::SimdDiv                     0      0.00%     15.52% # attempts to use FU when none available
system.cpu0.iq.fu_full::SimdSqrt                    0      0.00%     15.52% # attempts to use FU when none available
system.cpu0.iq.fu_full::SimdFloatAdd                0      0.00%     15.52% # attempts to use FU when none available
system.cpu0.iq.fu_full::SimdFloatAlu                0      0.00%     15.52% # attempts to use FU when none available
system.cpu0.iq.fu_full::SimdFloatCmp                0      0.00%     15.52% # attempts to use FU when none available
system.cpu0.iq.fu_full::SimdFloatCvt                0      0.00%     15.52% # attempts to use FU when none available
system.cpu0.iq.fu_full::SimdFloatDiv                0      0.00%     15.52% # attempts to use FU when none available
system.cpu0.iq.fu_full::SimdFloatMisc               0      0.00%     15.52% # attempts to use FU when none available
system.cpu0.iq.fu_full::SimdFloatMult               0      0.00%     15.52% # attempts to use FU when none available
system.cpu0.iq.fu_full::SimdFloatMultAcc            0      0.00%     15.52% # attempts to use FU when none available
system.cpu0.iq.fu_full::SimdFloatSqrt               0      0.00%     15.52% # attempts to use FU when none available
system.cpu0.iq.fu_full::SimdReduceAdd               0      0.00%     15.52% # attempts to use FU when none available
system.cpu0.iq.fu_full::SimdReduceAlu               0      0.00%     15.52% # attempts to use FU when none available
system.cpu0.iq.fu_full::SimdReduceCmp               0      0.00%     15.52% # attempts to use FU when none available
system.cpu0.iq.fu_full::SimdFloatReduceAdd            0      0.00%     15.52% # attempts to use FU when none available
system.cpu0.iq.fu_full::SimdFloatReduceCmp            0      0.00%     15.52% # attempts to use FU when none available
system.cpu0.iq.fu_full::SimdAes                     0      0.00%     15.52% # attempts to use FU when none available
system.cpu0.iq.fu_full::SimdAesMix                  0      0.00%     15.52% # attempts to use FU when none available
system.cpu0.iq.fu_full::SimdSha1Hash                0      0.00%     15.52% # attempts to use FU when none available
system.cpu0.iq.fu_full::SimdSha1Hash2               0      0.00%     15.52% # attempts to use FU when none available
system.cpu0.iq.fu_full::SimdSha256Hash              0      0.00%     15.52% # attempts to use FU when none available
system.cpu0.iq.fu_full::SimdSha256Hash2             0      0.00%     15.52% # attempts to use FU when none available
system.cpu0.iq.fu_full::SimdShaSigma2               0      0.00%     15.52% # attempts to use FU when none available
system.cpu0.iq.fu_full::SimdShaSigma3               0      0.00%     15.52% # attempts to use FU when none available
system.cpu0.iq.fu_full::SimdPredAlu                 0      0.00%     15.52% # attempts to use FU when none available
system.cpu0.iq.fu_full::MemRead               3735376     74.44%     89.96% # attempts to use FU when none available
system.cpu0.iq.fu_full::MemWrite               503908     10.04%    100.00% # attempts to use FU when none available
system.cpu0.iq.fu_full::FloatMemRead                0      0.00%    100.00% # attempts to use FU when none available
system.cpu0.iq.fu_full::FloatMemWrite               2      0.00%    100.00% # attempts to use FU when none available
system.cpu0.iq.fu_full::IprAccess                   0      0.00%    100.00% # attempts to use FU when none available
system.cpu0.iq.fu_full::InstPrefetch                0      0.00%    100.00% # attempts to use FU when none available
system.cpu0.iq.int_alu_accesses            2312038435                       # Number of integer alu accesses
system.cpu0.iq.int_inst_queue_reads        8729682438                       # Number of integer instruction queue reads
system.cpu0.iq.int_inst_queue_wakeup_accesses   2286510934                       # Number of integer instruction queue wakeup accesses
system.cpu0.iq.int_inst_queue_writes       2422536827                       # Number of integer instruction queue writes
system.cpu0.iq.iqInstsAdded                2314129194                       # Number of instructions added to the IQ (excludes non-spec)
system.cpu0.iq.iqInstsIssued               2314632482                       # Number of instructions issued
system.cpu0.iq.iqNonSpecInstsAdded           11420261                       # Number of non-speculative instructions added to the IQ
system.cpu0.iq.iqSquashedInstsExamined       96962051                       # Number of squashed instructions iterated over during squash; mainly for profiling
system.cpu0.iq.iqSquashedInstsIssued           297952                       # Number of squashed instructions issued
system.cpu0.iq.iqSquashedNonSpecRemoved           775                       # Number of squashed non-spec instructions that were removed
system.cpu0.iq.iqSquashedOperandsExamined     42083074                       # Number of squashed operands that are examined and possibly removed from graph
system.cpu0.iq.issued_per_cycle::samples   4095101756                       # Number of insts issued each cycle
system.cpu0.iq.issued_per_cycle::mean        0.565220                       # Number of insts issued each cycle
system.cpu0.iq.issued_per_cycle::stdev       0.797568                       # Number of insts issued each cycle
system.cpu0.iq.issued_per_cycle::underflows            0      0.00%      0.00% # Number of insts issued each cycle
system.cpu0.iq.issued_per_cycle::0         2399553554     58.60%     58.60% # Number of insts issued each cycle
system.cpu0.iq.issued_per_cycle::1         1209854405     29.54%     88.14% # Number of insts issued each cycle
system.cpu0.iq.issued_per_cycle::2          383722995      9.37%     97.51% # Number of insts issued each cycle
system.cpu0.iq.issued_per_cycle::3           79926280      1.95%     99.46% # Number of insts issued each cycle
system.cpu0.iq.issued_per_cycle::4           16900960      0.41%     99.87% # Number of insts issued each cycle
system.cpu0.iq.issued_per_cycle::5            2369760      0.06%     99.93% # Number of insts issued each cycle
system.cpu0.iq.issued_per_cycle::6            1655670      0.04%     99.97% # Number of insts issued each cycle
system.cpu0.iq.issued_per_cycle::7             778469      0.02%     99.99% # Number of insts issued each cycle
system.cpu0.iq.issued_per_cycle::8             339663      0.01%    100.00% # Number of insts issued each cycle
system.cpu0.iq.issued_per_cycle::overflows            0      0.00%    100.00% # Number of insts issued each cycle
system.cpu0.iq.issued_per_cycle::min_value            0                       # Number of insts issued each cycle
system.cpu0.iq.issued_per_cycle::max_value            8                       # Number of insts issued each cycle
system.cpu0.iq.issued_per_cycle::total     4095101756                       # Number of insts issued each cycle
system.cpu0.iq.rate                          0.531723                       # Inst issue rate
system.cpu0.iq.vec_alu_accesses                     0                       # Number of vector alu accesses
system.cpu0.iq.vec_inst_queue_reads                 0                       # Number of vector instruction queue reads
system.cpu0.iq.vec_inst_queue_wakeup_accesses            0                       # Number of vector instruction queue wakeup accesses
system.cpu0.iq.vec_inst_queue_writes                0                       # Number of vector instruction queue writes
system.cpu0.itb.accesses                            0                       # DTB accesses
system.cpu0.itb.hits                                0                       # DTB hits
system.cpu0.itb.misses                              0                       # DTB misses
system.cpu0.itb.read_accesses                       0                       # DTB read accesses
system.cpu0.itb.read_hits                           0                       # DTB read hits
system.cpu0.itb.read_misses                         0                       # DTB read misses
system.cpu0.itb.write_accesses                      0                       # DTB write accesses
system.cpu0.itb.write_hits                          0                       # DTB write hits
system.cpu0.itb.write_misses                        0                       # DTB write misses
system.cpu0.memDep0.conflictingLoads         39991820                       # Number of conflicting loads.
system.cpu0.memDep0.conflictingStores         5485011                       # Number of conflicting stores.
system.cpu0.memDep0.insertedLoads           728685533                       # Number of loads inserted to the mem dependence unit.
system.cpu0.memDep0.insertedStores          277454235                       # Number of stores inserted to the mem dependence unit.
system.cpu0.misc_regfile_reads                   2897                       # number of misc regfile reads
system.cpu0.misc_regfile_writes                    22                       # number of misc regfile writes
system.cpu0.numCycles                      4353080214                       # number of cpu cycles simulated
system.cpu0.numWorkItemsCompleted                   0                       # number of work items this cpu completed
system.cpu0.numWorkItemsStarted                     0                       # number of work items this cpu started
system.cpu0.quiesceCycles                     8794139                       # Total number of cycles that CPU has spent quiesced or waiting for an interrupt
system.cpu0.rename.BlockCycles              640209013                       # Number of cycles rename is blocking
system.cpu0.rename.CommittedMaps           1421317896                       # Number of HB maps that are committed
system.cpu0.rename.IQFullEvents              25564165                       # Number of times rename has blocked due to IQ full
system.cpu0.rename.IdleCycles              1739265318                       # Number of cycles rename is idle
system.cpu0.rename.LQFullEvents              35006039                       # Number of times rename has blocked due to LQ full
system.cpu0.rename.ROBFullEvents               109849                       # Number of times rename has blocked due to ROB full
system.cpu0.rename.RenameLookups           2866989267                       # Number of register rename lookups that rename has made
system.cpu0.rename.RenamedInsts            2344702455                       # Number of instructions processed by rename
system.cpu0.rename.RenamedOperands         1505235444                       # Number of destination operands rename has renamed
system.cpu0.rename.RunCycles               1608187677                       # Number of cycles rename is running
system.cpu0.rename.SQFullEvents              32421780                       # Number of times rename has blocked due to SQ full
system.cpu0.rename.SquashCycles              13785013                       # Number of cycles rename is squashing
system.cpu0.rename.UnblockCycles             93443581                       # Number of cycles rename is unblocking
system.cpu0.rename.UndoneMaps                83917543                       # Number of HB maps that are undone due to squashing
system.cpu0.rename.fp_rename_lookups               44                       # Number of floating rename lookups
system.cpu0.rename.int_rename_lookups      2866989223                       # Number of integer rename lookups
system.cpu0.rename.serializeStallCycles        211154                       # count of cycles rename stalled for serializing inst
system.cpu0.rename.serializingInsts              8888                       # count of serializing insts renamed
system.cpu0.rename.skidInsts                 52400947                       # count of insts added to the skid buffer
system.cpu0.rename.tempSerializingInsts          8836                       # count of temporary serializing insts renamed
system.cpu0.rob.rob_reads                  6344517372                       # The number of ROB reads
system.cpu0.rob.rob_writes                 4671433997                       # The number of ROB writes
system.cpu0.timesIdled                       56312394                       # Number of times that the entire CPU went into an idle state and unscheduled itself
system.cpu0.workload.numSyscalls                 2864                       # Number of system calls
system.cpu1.branchPred.BTBCorrect                   0                       # Number of correct BTB predictions (this stat may not work properly.
system.cpu1.branchPred.BTBHitPct            93.648700                       # BTB Hit Percentage
system.cpu1.branchPred.BTBHits               17971311                       # Number of BTB hits
system.cpu1.branchPred.BTBLookups            19190134                       # Number of BTB lookups
system.cpu1.branchPred.RASInCorrect                 0                       # Number of incorrect RAS predictions.
system.cpu1.branchPred.condIncorrect          1790109                       # Number of conditional branches incorrect
system.cpu1.branchPred.condPredicted         32662924                       # Number of conditional branches predicted
system.cpu1.branchPred.indirectHits            914422                       # Number of indirect target hits.
system.cpu1.branchPred.indirectLookups         928542                       # Number of indirect predictor lookups.
system.cpu1.branchPred.indirectMisses           14120                       # Number of indirect misses.
system.cpu1.branchPred.lookups               35872136                       # Number of BP lookups
system.cpu1.branchPred.usedRAS                      0                       # Number of times the RAS was used to get a target.
system.cpu1.branchPredindirectMispredicted        48165                       # Number of mispredicted indirect branches.
system.cpu1.commit.amos                       3801575                       # Number of atomic instructions committed
system.cpu1.commit.branchMispredicts          1390799                       # The number of times a branch was mispredicted
system.cpu1.commit.branches                  29517169                       # Number of branches committed
system.cpu1.commit.bw_lim_events              3372055                       # number cycles where commit BW limit reached
system.cpu1.commit.commitNonSpecStalls       11405418                       # The number of times commit has been forced to stall to communicate backwards
system.cpu1.commit.commitSquashedInsts       14992753                       # The number of squashed insts skipped by commit
system.cpu1.commit.committedInsts           130066749                       # Number of instructions committed
system.cpu1.commit.committedOps             133868509                       # Number of ops (including micro ops) committed
system.cpu1.commit.committed_per_cycle::samples    718546870                       # Number of insts commited each cycle
system.cpu1.commit.committed_per_cycle::mean     0.186304                       # Number of insts commited each cycle
system.cpu1.commit.committed_per_cycle::stdev     0.856587                       # Number of insts commited each cycle
system.cpu1.commit.committed_per_cycle::underflows            0      0.00%      0.00% # Number of insts commited each cycle
system.cpu1.commit.committed_per_cycle::0    663519778     92.34%     92.34% # Number of insts commited each cycle
system.cpu1.commit.committed_per_cycle::1     27252041      3.79%     96.13% # Number of insts commited each cycle
system.cpu1.commit.committed_per_cycle::2      8981785      1.25%     97.38% # Number of insts commited each cycle
system.cpu1.commit.committed_per_cycle::3      8774856      1.22%     98.61% # Number of insts commited each cycle
system.cpu1.commit.committed_per_cycle::4      2047721      0.28%     98.89% # Number of insts commited each cycle
system.cpu1.commit.committed_per_cycle::5       744731      0.10%     98.99% # Number of insts commited each cycle
system.cpu1.commit.committed_per_cycle::6      3539970      0.49%     99.49% # Number of insts commited each cycle
system.cpu1.commit.committed_per_cycle::7       313933      0.04%     99.53% # Number of insts commited each cycle
system.cpu1.commit.committed_per_cycle::8      3372055      0.47%    100.00% # Number of insts commited each cycle
system.cpu1.commit.committed_per_cycle::overflows            0      0.00%    100.00% # Number of insts commited each cycle
system.cpu1.commit.committed_per_cycle::min_value            0                       # Number of insts commited each cycle
system.cpu1.commit.committed_per_cycle::max_value            8                       # Number of insts commited each cycle
system.cpu1.commit.committed_per_cycle::total    718546870                       # Number of insts commited each cycle
system.cpu1.commit.fp_insts                        12                       # Number of committed floating point instructions.
system.cpu1.commit.function_calls             1457121                       # Number of function calls committed.
system.cpu1.commit.int_insts                125272708                       # Number of committed integer instructions.
system.cpu1.commit.loads                     36890078                       # Number of loads committed
system.cpu1.commit.membars                    7603280                       # Number of memory barriers committed
system.cpu1.commit.op_class_0::No_OpClass      7603280      5.68%      5.68% # Class of committed instruction
system.cpu1.commit.op_class_0::IntAlu        77451044     57.86%     63.54% # Class of committed instruction
system.cpu1.commit.op_class_0::IntMult             44      0.00%     63.54% # Class of committed instruction
system.cpu1.commit.op_class_0::IntDiv              88      0.00%     63.54% # Class of committed instruction
system.cpu1.commit.op_class_0::FloatAdd             0      0.00%     63.54% # Class of committed instruction
system.cpu1.commit.op_class_0::FloatCmp             0      0.00%     63.54% # Class of committed instruction
system.cpu1.commit.op_class_0::FloatCvt             0      0.00%     63.54% # Class of committed instruction
system.cpu1.commit.op_class_0::FloatMult            0      0.00%     63.54% # Class of committed instruction
system.cpu1.commit.op_class_0::FloatMultAcc            0      0.00%     63.54% # Class of committed instruction
system.cpu1.commit.op_class_0::FloatDiv             0      0.00%     63.54% # Class of committed instruction
system.cpu1.commit.op_class_0::FloatMisc            0      0.00%     63.54% # Class of committed instruction
system.cpu1.commit.op_class_0::FloatSqrt            0      0.00%     63.54% # Class of committed instruction
system.cpu1.commit.op_class_0::SimdAdd              0      0.00%     63.54% # Class of committed instruction
system.cpu1.commit.op_class_0::SimdAddAcc            0      0.00%     63.54% # Class of committed instruction
system.cpu1.commit.op_class_0::SimdAlu              0      0.00%     63.54% # Class of committed instruction
system.cpu1.commit.op_class_0::SimdCmp              0      0.00%     63.54% # Class of committed instruction
system.cpu1.commit.op_class_0::SimdCvt              0      0.00%     63.54% # Class of committed instruction
system.cpu1.commit.op_class_0::SimdMisc             0      0.00%     63.54% # Class of committed instruction
system.cpu1.commit.op_class_0::SimdMult             0      0.00%     63.54% # Class of committed instruction
system.cpu1.commit.op_class_0::SimdMultAcc            0      0.00%     63.54% # Class of committed instruction
system.cpu1.commit.op_class_0::SimdShift            0      0.00%     63.54% # Class of committed instruction
system.cpu1.commit.op_class_0::SimdShiftAcc            0      0.00%     63.54% # Class of committed instruction
system.cpu1.commit.op_class_0::SimdDiv              0      0.00%     63.54% # Class of committed instruction
system.cpu1.commit.op_class_0::SimdSqrt             0      0.00%     63.54% # Class of committed instruction
system.cpu1.commit.op_class_0::SimdFloatAdd            0      0.00%     63.54% # Class of committed instruction
system.cpu1.commit.op_class_0::SimdFloatAlu            0      0.00%     63.54% # Class of committed instruction
system.cpu1.commit.op_class_0::SimdFloatCmp            0      0.00%     63.54% # Class of committed instruction
system.cpu1.commit.op_class_0::SimdFloatCvt            0      0.00%     63.54% # Class of committed instruction
system.cpu1.commit.op_class_0::SimdFloatDiv            0      0.00%     63.54% # Class of committed instruction
system.cpu1.commit.op_class_0::SimdFloatMisc            0      0.00%     63.54% # Class of committed instruction
system.cpu1.commit.op_class_0::SimdFloatMult            0      0.00%     63.54% # Class of committed instruction
system.cpu1.commit.op_class_0::SimdFloatMultAcc            0      0.00%     63.54% # Class of committed instruction
system.cpu1.commit.op_class_0::SimdFloatSqrt            0      0.00%     63.54% # Class of committed instruction
system.cpu1.commit.op_class_0::SimdReduceAdd            0      0.00%     63.54% # Class of committed instruction
system.cpu1.commit.op_class_0::SimdReduceAlu            0      0.00%     63.54% # Class of committed instruction
system.cpu1.commit.op_class_0::SimdReduceCmp            0      0.00%     63.54% # Class of committed instruction
system.cpu1.commit.op_class_0::SimdFloatReduceAdd            0      0.00%     63.54% # Class of committed instruction
system.cpu1.commit.op_class_0::SimdFloatReduceCmp            0      0.00%     63.54% # Class of committed instruction
system.cpu1.commit.op_class_0::SimdAes              0      0.00%     63.54% # Class of committed instruction
system.cpu1.commit.op_class_0::SimdAesMix            0      0.00%     63.54% # Class of committed instruction
system.cpu1.commit.op_class_0::SimdSha1Hash            0      0.00%     63.54% # Class of committed instruction
system.cpu1.commit.op_class_0::SimdSha1Hash2            0      0.00%     63.54% # Class of committed instruction
system.cpu1.commit.op_class_0::SimdSha256Hash            0      0.00%     63.54% # Class of committed instruction
system.cpu1.commit.op_class_0::SimdSha256Hash2            0      0.00%     63.54% # Class of committed instruction
system.cpu1.commit.op_class_0::SimdShaSigma2            0      0.00%     63.54% # Class of committed instruction
system.cpu1.commit.op_class_0::SimdShaSigma3            0      0.00%     63.54% # Class of committed instruction
system.cpu1.commit.op_class_0::SimdPredAlu            0      0.00%     63.54% # Class of committed instruction
system.cpu1.commit.op_class_0::MemRead       40691653     30.40%     93.93% # Class of committed instruction
system.cpu1.commit.op_class_0::MemWrite       8122388      6.07%    100.00% # Class of committed instruction
system.cpu1.commit.op_class_0::FloatMemRead            0      0.00%    100.00% # Class of committed instruction
system.cpu1.commit.op_class_0::FloatMemWrite           12      0.00%    100.00% # Class of committed instruction
system.cpu1.commit.op_class_0::IprAccess            0      0.00%    100.00% # Class of committed instruction
system.cpu1.commit.op_class_0::InstPrefetch            0      0.00%    100.00% # Class of committed instruction
system.cpu1.commit.op_class_0::total        133868509                       # Class of committed instruction
system.cpu1.commit.refs                      48814053                       # Number of memory references committed
system.cpu1.commit.swp_count                        0                       # Number of s/w prefetches committed
system.cpu1.commit.vec_insts                        0                       # Number of committed Vector instructions.
system.cpu1.committedInsts                  130066749                       # Number of Instructions Simulated
system.cpu1.committedOps                    133868509                       # Number of Ops (including micro ops) Simulated
system.cpu1.cpi                              5.553460                       # CPI: Cycles Per Instruction
system.cpu1.cpi_total                        5.553460                       # CPI: Total CPI of All Threads
system.cpu1.decode.BlockedCycles            639394593                       # Number of cycles decode is blocked
system.cpu1.decode.BranchMispred               417184                       # Number of times decode detected a branch misprediction
system.cpu1.decode.BranchResolved            17267026                       # Number of times decode resolved a branch
system.cpu1.decode.DecodedInsts             154639949                       # Number of instructions handled by decode
system.cpu1.decode.IdleCycles                21387350                       # Number of cycles decode is idle
system.cpu1.decode.RunCycles                 50386220                       # Number of cycles decode is running
system.cpu1.decode.SquashCycles               1392283                       # Number of cycles decode is squashing
system.cpu1.decode.SquashedInsts              1122304                       # Number of squashed instructions handled by decode
system.cpu1.decode.UnblockCycles              8832672                       # Number of cycles decode is unblocking
system.cpu1.dtb.accesses                            0                       # DTB accesses
system.cpu1.dtb.hits                                0                       # DTB hits
system.cpu1.dtb.misses                              0                       # DTB misses
system.cpu1.dtb.read_accesses                       0                       # DTB read accesses
system.cpu1.dtb.read_hits                           0                       # DTB read hits
system.cpu1.dtb.read_misses                         0                       # DTB read misses
system.cpu1.dtb.write_accesses                      0                       # DTB write accesses
system.cpu1.dtb.write_hits                          0                       # DTB write hits
system.cpu1.dtb.write_misses                        0                       # DTB write misses
system.cpu1.fetch.Branches                   35872136                       # Number of branches that fetch encountered
system.cpu1.fetch.CacheLines                 21090823                       # Number of cache lines fetched
system.cpu1.fetch.Cycles                    697193370                       # Number of cycles fetch has run and was not squashing or blocked
system.cpu1.fetch.IcacheSquashes               145393                       # Number of outstanding Icache misses that were squashed
system.cpu1.fetch.Insts                     155922349                       # Number of instructions fetch has processed
system.cpu1.fetch.MiscStallCycles                   1                       # Number of cycles fetch has spent waiting on interrupts, or bad addresses, or out of MSHRs
system.cpu1.fetch.SquashCycles                3583186                       # Number of cycles fetch has spent squashing
system.cpu1.fetch.branchRate                 0.049662                       # Number of branch fetches per cycle
system.cpu1.fetch.icacheStallCycles          22408154                       # Number of cycles fetch is stalled on an Icache miss
system.cpu1.fetch.predictedBranches          18885733                       # Number of branches that fetch has predicted taken
system.cpu1.fetch.rate                       0.215863                       # Number of inst fetches per cycle
system.cpu1.fetch.rateDist::samples         721393118                       # Number of instructions fetched each cycle (Total)
system.cpu1.fetch.rateDist::mean             0.221411                       # Number of instructions fetched each cycle (Total)
system.cpu1.fetch.rateDist::stdev            0.661811                       # Number of instructions fetched each cycle (Total)
system.cpu1.fetch.rateDist::underflows              0      0.00%      0.00% # Number of instructions fetched each cycle (Total)
system.cpu1.fetch.rateDist::0               625381127     86.69%     86.69% # Number of instructions fetched each cycle (Total)
system.cpu1.fetch.rateDist::1                55379136      7.68%     94.37% # Number of instructions fetched each cycle (Total)
system.cpu1.fetch.rateDist::2                24594516      3.41%     97.78% # Number of instructions fetched each cycle (Total)
system.cpu1.fetch.rateDist::3                10892164      1.51%     99.29% # Number of instructions fetched each cycle (Total)
system.cpu1.fetch.rateDist::4                 3321808      0.46%     99.75% # Number of instructions fetched each cycle (Total)
system.cpu1.fetch.rateDist::5                 1756488      0.24%     99.99% # Number of instructions fetched each cycle (Total)
system.cpu1.fetch.rateDist::6                   65971      0.01%    100.00% # Number of instructions fetched each cycle (Total)
system.cpu1.fetch.rateDist::7                     938      0.00%    100.00% # Number of instructions fetched each cycle (Total)
system.cpu1.fetch.rateDist::8                     970      0.00%    100.00% # Number of instructions fetched each cycle (Total)
system.cpu1.fetch.rateDist::overflows               0      0.00%    100.00% # Number of instructions fetched each cycle (Total)
system.cpu1.fetch.rateDist::min_value               0                       # Number of instructions fetched each cycle (Total)
system.cpu1.fetch.rateDist::max_value               8                       # Number of instructions fetched each cycle (Total)
system.cpu1.fetch.rateDist::total           721393118                       # Number of instructions fetched each cycle (Total)
system.cpu1.fp_regfile_reads                       12                       # number of floating regfile reads
system.cpu1.idleCycles                         927421                       # Total number of cycles that the CPU has spent unscheduled due to idling
system.cpu1.iew.branchMispredicts             1516653                       # Number of branch mispredicts detected at execute
system.cpu1.iew.exec_branches                31668010                       # Number of branches executed
system.cpu1.iew.exec_nop                            0                       # number of nop insts executed
system.cpu1.iew.exec_rate                    0.199964                       # Inst execution rate
system.cpu1.iew.exec_refs                    52008676                       # number of memory reference insts executed
system.cpu1.iew.exec_stores                  12324562                       # Number of stores executed
system.cpu1.iew.exec_swp                            0                       # number of swp insts executed
system.cpu1.iew.iewBlockCycles              546093688                       # Number of cycles IEW is blocking
system.cpu1.iew.iewDispLoadInsts             40186764                       # Number of dispatched load instructions
system.cpu1.iew.iewDispNonSpecInsts           3802258                       # Number of dispatched non-speculative instructions
system.cpu1.iew.iewDispSquashedInsts          1108465                       # Number of squashed instructions skipped by dispatch
system.cpu1.iew.iewDispStoreInsts            12618439                       # Number of dispatched store instructions
system.cpu1.iew.iewDispatchedInsts          148845689                       # Number of instructions dispatched to IQ
system.cpu1.iew.iewExecLoadInsts             39684114                       # Number of load instructions executed
system.cpu1.iew.iewExecSquashedInsts          1455302                       # Number of squashed instructions skipped in execute
system.cpu1.iew.iewExecutedInsts            144438152                       # Number of executed instructions
system.cpu1.iew.iewIQFullEvents               2883336                       # Number of times the IQ has become full, causing a stall
system.cpu1.iew.iewIdleCycles                       0                       # Number of cycles IEW is idle
system.cpu1.iew.iewLSQFullEvents              7413017                       # Number of times the LSQ has become full, causing a stall
system.cpu1.iew.iewSquashCycles               1392283                       # Number of cycles IEW is squashing
system.cpu1.iew.iewUnblockCycles             14761229                       # Number of cycles IEW is unblocking
system.cpu1.iew.lsq.thread0.blockedLoads            0                       # Number of blocked loads due to partial load-store forwarding
system.cpu1.iew.lsq.thread0.cacheBlocked        64717                       # Number of times an access to memory failed due to the cache being blocked
system.cpu1.iew.lsq.thread0.forwLoads         1108969                       # Number of loads that had data forwarded from stores
system.cpu1.iew.lsq.thread0.ignoredResponses        30303                       # Number of memory responses ignored because the instruction is squashed
system.cpu1.iew.lsq.thread0.invAddrLoads            0                       # Number of loads ignored due to an invalid address
system.cpu1.iew.lsq.thread0.invAddrSwpfs            0                       # Number of software prefetches ignored due to an invalid address
system.cpu1.iew.lsq.thread0.memOrderViolation         1819                       # Number of memory ordering violations
system.cpu1.iew.lsq.thread0.rescheduledLoads         5249                       # Number of loads that were rescheduled
system.cpu1.iew.lsq.thread0.squashedLoads      3296686                       # Number of loads squashed
system.cpu1.iew.lsq.thread0.squashedStores       694464                       # Number of stores squashed
system.cpu1.iew.memOrderViolationEvents          1819                       # Number of memory order violations
system.cpu1.iew.predictedNotTakenIncorrect       526471                       # Number of branches that were predicted not taken incorrectly
system.cpu1.iew.predictedTakenIncorrect        990182                       # Number of branches that were predicted taken incorrectly
system.cpu1.iew.wb_consumers                 82321970                       # num instructions consuming a value
system.cpu1.iew.wb_count                    143420771                       # cumulative count of insts written-back
system.cpu1.iew.wb_fanout                    0.854183                       # average fanout of values written-back
system.cpu1.iew.wb_producers                 70318027                       # num instructions producing a value
system.cpu1.iew.wb_rate                      0.198556                       # insts written-back per cycle
system.cpu1.iew.wb_sent                     143466135                       # cumulative count of insts sent to commit
system.cpu1.int_regfile_reads               179611309                       # number of integer regfile reads
system.cpu1.int_regfile_writes               96445949                       # number of integer regfile writes
system.cpu1.ipc                              0.180068                       # IPC: Instructions Per Cycle
system.cpu1.ipc_total                        0.180068                       # IPC: Total IPC of All Threads
system.cpu1.iq.FU_type_0::No_OpClass          7603386      5.21%      5.21% # Type of FU issued
system.cpu1.iq.FU_type_0::IntAlu             85845163     58.84%     64.05% # Type of FU issued
system.cpu1.iq.FU_type_0::IntMult                  46      0.00%     64.05% # Type of FU issued
system.cpu1.iq.FU_type_0::IntDiv                   90      0.00%     64.05% # Type of FU issued
system.cpu1.iq.FU_type_0::FloatAdd                  0      0.00%     64.05% # Type of FU issued
system.cpu1.iq.FU_type_0::FloatCmp                  0      0.00%     64.05% # Type of FU issued
system.cpu1.iq.FU_type_0::FloatCvt                  0      0.00%     64.05% # Type of FU issued
system.cpu1.iq.FU_type_0::FloatMult                 0      0.00%     64.05% # Type of FU issued
system.cpu1.iq.FU_type_0::FloatMultAcc              0      0.00%     64.05% # Type of FU issued
system.cpu1.iq.FU_type_0::FloatDiv                  0      0.00%     64.05% # Type of FU issued
system.cpu1.iq.FU_type_0::FloatMisc                 0      0.00%     64.05% # Type of FU issued
system.cpu1.iq.FU_type_0::FloatSqrt                 0      0.00%     64.05% # Type of FU issued
system.cpu1.iq.FU_type_0::SimdAdd                   0      0.00%     64.05% # Type of FU issued
system.cpu1.iq.FU_type_0::SimdAddAcc                0      0.00%     64.05% # Type of FU issued
system.cpu1.iq.FU_type_0::SimdAlu                   0      0.00%     64.05% # Type of FU issued
system.cpu1.iq.FU_type_0::SimdCmp                   0      0.00%     64.05% # Type of FU issued
system.cpu1.iq.FU_type_0::SimdCvt                   0      0.00%     64.05% # Type of FU issued
system.cpu1.iq.FU_type_0::SimdMisc                  0      0.00%     64.05% # Type of FU issued
system.cpu1.iq.FU_type_0::SimdMult                  0      0.00%     64.05% # Type of FU issued
system.cpu1.iq.FU_type_0::SimdMultAcc               0      0.00%     64.05% # Type of FU issued
system.cpu1.iq.FU_type_0::SimdShift                 0      0.00%     64.05% # Type of FU issued
system.cpu1.iq.FU_type_0::SimdShiftAcc              0      0.00%     64.05% # Type of FU issued
system.cpu1.iq.FU_type_0::SimdDiv                   0      0.00%     64.05% # Type of FU issued
system.cpu1.iq.FU_type_0::SimdSqrt                  0      0.00%     64.05% # Type of FU issued
system.cpu1.iq.FU_type_0::SimdFloatAdd              0      0.00%     64.05% # Type of FU issued
system.cpu1.iq.FU_type_0::SimdFloatAlu              0      0.00%     64.05% # Type of FU issued
system.cpu1.iq.FU_type_0::SimdFloatCmp              0      0.00%     64.05% # Type of FU issued
system.cpu1.iq.FU_type_0::SimdFloatCvt              0      0.00%     64.05% # Type of FU issued
system.cpu1.iq.FU_type_0::SimdFloatDiv              0      0.00%     64.05% # Type of FU issued
system.cpu1.iq.FU_type_0::SimdFloatMisc             0      0.00%     64.05% # Type of FU issued
system.cpu1.iq.FU_type_0::SimdFloatMult             0      0.00%     64.05% # Type of FU issued
system.cpu1.iq.FU_type_0::SimdFloatMultAcc            0      0.00%     64.05% # Type of FU issued
system.cpu1.iq.FU_type_0::SimdFloatSqrt             0      0.00%     64.05% # Type of FU issued
system.cpu1.iq.FU_type_0::SimdReduceAdd             0      0.00%     64.05% # Type of FU issued
system.cpu1.iq.FU_type_0::SimdReduceAlu             0      0.00%     64.05% # Type of FU issued
system.cpu1.iq.FU_type_0::SimdReduceCmp             0      0.00%     64.05% # Type of FU issued
system.cpu1.iq.FU_type_0::SimdFloatReduceAdd            0      0.00%     64.05% # Type of FU issued
system.cpu1.iq.FU_type_0::SimdFloatReduceCmp            0      0.00%     64.05% # Type of FU issued
system.cpu1.iq.FU_type_0::SimdAes                   0      0.00%     64.05% # Type of FU issued
system.cpu1.iq.FU_type_0::SimdAesMix                0      0.00%     64.05% # Type of FU issued
system.cpu1.iq.FU_type_0::SimdSha1Hash              0      0.00%     64.05% # Type of FU issued
system.cpu1.iq.FU_type_0::SimdSha1Hash2             0      0.00%     64.05% # Type of FU issued
system.cpu1.iq.FU_type_0::SimdSha256Hash            0      0.00%     64.05% # Type of FU issued
system.cpu1.iq.FU_type_0::SimdSha256Hash2            0      0.00%     64.05% # Type of FU issued
system.cpu1.iq.FU_type_0::SimdShaSigma2             0      0.00%     64.05% # Type of FU issued
system.cpu1.iq.FU_type_0::SimdShaSigma3             0      0.00%     64.05% # Type of FU issued
system.cpu1.iq.FU_type_0::SimdPredAlu               0      0.00%     64.05% # Type of FU issued
system.cpu1.iq.FU_type_0::MemRead            43880516     30.08%     94.13% # Type of FU issued
system.cpu1.iq.FU_type_0::MemWrite            8564241      5.87%    100.00% # Type of FU issued
system.cpu1.iq.FU_type_0::FloatMemRead              0      0.00%    100.00% # Type of FU issued
system.cpu1.iq.FU_type_0::FloatMemWrite            12      0.00%    100.00% # Type of FU issued
system.cpu1.iq.FU_type_0::IprAccess                 0      0.00%    100.00% # Type of FU issued
system.cpu1.iq.FU_type_0::InstPrefetch              0      0.00%    100.00% # Type of FU issued
system.cpu1.iq.FU_type_0::total             145893454                       # Type of FU issued
system.cpu1.iq.fp_alu_accesses                     14                       # Number of floating point alu accesses
system.cpu1.iq.fp_inst_queue_reads                 26                       # Number of floating instruction queue reads
system.cpu1.iq.fp_inst_queue_wakeup_accesses           12                       # Number of floating instruction queue wakeup accesses
system.cpu1.iq.fp_inst_queue_writes                12                       # Number of floating instruction queue writes
system.cpu1.iq.fu_busy_cnt                    4185877                       # FU busy when requested
system.cpu1.iq.fu_busy_rate                  0.028691                       # FU busy rate (busy events/executed inst)
system.cpu1.iq.fu_full::No_OpClass                  0      0.00%      0.00% # attempts to use FU when none available
system.cpu1.iq.fu_full::IntAlu                 775145     18.52%     18.52% # attempts to use FU when none available
system.cpu1.iq.fu_full::IntMult                     0      0.00%     18.52% # attempts to use FU when none available
system.cpu1.iq.fu_full::IntDiv                      0      0.00%     18.52% # attempts to use FU when none available
system.cpu1.iq.fu_full::FloatAdd                    0      0.00%     18.52% # attempts to use FU when none available
system.cpu1.iq.fu_full::FloatCmp                    0      0.00%     18.52% # attempts to use FU when none available
system.cpu1.iq.fu_full::FloatCvt                    0      0.00%     18.52% # attempts to use FU when none available
system.cpu1.iq.fu_full::FloatMult                   0      0.00%     18.52% # attempts to use FU when none available
system.cpu1.iq.fu_full::FloatMultAcc                0      0.00%     18.52% # attempts to use FU when none available
system.cpu1.iq.fu_full::FloatDiv                    0      0.00%     18.52% # attempts to use FU when none available
system.cpu1.iq.fu_full::FloatMisc                   0      0.00%     18.52% # attempts to use FU when none available
system.cpu1.iq.fu_full::FloatSqrt                   0      0.00%     18.52% # attempts to use FU when none available
system.cpu1.iq.fu_full::SimdAdd                     0      0.00%     18.52% # attempts to use FU when none available
system.cpu1.iq.fu_full::SimdAddAcc                  0      0.00%     18.52% # attempts to use FU when none available
system.cpu1.iq.fu_full::SimdAlu                     0      0.00%     18.52% # attempts to use FU when none available
system.cpu1.iq.fu_full::SimdCmp                     0      0.00%     18.52% # attempts to use FU when none available
system.cpu1.iq.fu_full::SimdCvt                     0      0.00%     18.52% # attempts to use FU when none available
system.cpu1.iq.fu_full::SimdMisc                    0      0.00%     18.52% # attempts to use FU when none available
system.cpu1.iq.fu_full::SimdMult                    0      0.00%     18.52% # attempts to use FU when none available
system.cpu1.iq.fu_full::SimdMultAcc                 0      0.00%     18.52% # attempts to use FU when none available
system.cpu1.iq.fu_full::SimdShift                   0      0.00%     18.52% # attempts to use FU when none available
system.cpu1.iq.fu_full::SimdShiftAcc                0      0.00%     18.52% # attempts to use FU when none available
system.cpu1.iq.fu_full::SimdDiv                     0      0.00%     18.52% # attempts to use FU when none available
system.cpu1.iq.fu_full::SimdSqrt                    0      0.00%     18.52% # attempts to use FU when none available
system.cpu1.iq.fu_full::SimdFloatAdd                0      0.00%     18.52% # attempts to use FU when none available
system.cpu1.iq.fu_full::SimdFloatAlu                0      0.00%     18.52% # attempts to use FU when none available
system.cpu1.iq.fu_full::SimdFloatCmp                0      0.00%     18.52% # attempts to use FU when none available
system.cpu1.iq.fu_full::SimdFloatCvt                0      0.00%     18.52% # attempts to use FU when none available
system.cpu1.iq.fu_full::SimdFloatDiv                0      0.00%     18.52% # attempts to use FU when none available
system.cpu1.iq.fu_full::SimdFloatMisc               0      0.00%     18.52% # attempts to use FU when none available
system.cpu1.iq.fu_full::SimdFloatMult               0      0.00%     18.52% # attempts to use FU when none available
system.cpu1.iq.fu_full::SimdFloatMultAcc            0      0.00%     18.52% # attempts to use FU when none available
system.cpu1.iq.fu_full::SimdFloatSqrt               0      0.00%     18.52% # attempts to use FU when none available
system.cpu1.iq.fu_full::SimdReduceAdd               0      0.00%     18.52% # attempts to use FU when none available
system.cpu1.iq.fu_full::SimdReduceAlu               0      0.00%     18.52% # attempts to use FU when none available
system.cpu1.iq.fu_full::SimdReduceCmp               0      0.00%     18.52% # attempts to use FU when none available
system.cpu1.iq.fu_full::SimdFloatReduceAdd            0      0.00%     18.52% # attempts to use FU when none available
system.cpu1.iq.fu_full::SimdFloatReduceCmp            0      0.00%     18.52% # attempts to use FU when none available
system.cpu1.iq.fu_full::SimdAes                     0      0.00%     18.52% # attempts to use FU when none available
system.cpu1.iq.fu_full::SimdAesMix                  0      0.00%     18.52% # attempts to use FU when none available
system.cpu1.iq.fu_full::SimdSha1Hash                0      0.00%     18.52% # attempts to use FU when none available
system.cpu1.iq.fu_full::SimdSha1Hash2               0      0.00%     18.52% # attempts to use FU when none available
system.cpu1.iq.fu_full::SimdSha256Hash              0      0.00%     18.52% # attempts to use FU when none available
system.cpu1.iq.fu_full::SimdSha256Hash2             0      0.00%     18.52% # attempts to use FU when none available
system.cpu1.iq.fu_full::SimdShaSigma2               0      0.00%     18.52% # attempts to use FU when none available
system.cpu1.iq.fu_full::SimdShaSigma3               0      0.00%     18.52% # attempts to use FU when none available
system.cpu1.iq.fu_full::SimdPredAlu                 0      0.00%     18.52% # attempts to use FU when none available
system.cpu1.iq.fu_full::MemRead               3062071     73.15%     91.67% # attempts to use FU when none available
system.cpu1.iq.fu_full::MemWrite               348659      8.33%    100.00% # attempts to use FU when none available
[...]
system.cpu1.dcache.ReadReq_avg_miss_latency::total 79530.721480                       # average ReadReq miss latency
system.cpu1.dcache.ReadReq_mshr_hits::.cpu1.data      4066244                       # number of ReadReq MSHR hits
system.cpu1.dcache.ReadReq_mshr_hits::total      4066244                       # number of ReadReq MSHR hits
system.cpu1.dcache.ReadReq_mshr_misses::.cpu1.data      2973635                       # number of ReadReq MSHR misses
system.cpu1.dcache.ReadReq_mshr_misses::total      2973635                       # number of ReadReq MSHR misses
system.cpu1.dcache.ReadReq_mshr_miss_latency::.cpu1.data 288636488500                       # number of ReadReq MSHR miss cycles
system.cpu1.dcache.ReadReq_mshr_miss_latency::total 288636488500                       # number of ReadReq MSHR miss cycles
system.cpu1.dcache.ReadReq_mshr_miss_rate::.cpu1.data     0.065322                       # mshr miss rate for ReadReq accesses
system.cpu1.dcache.ReadReq_mshr_miss_rate::total     0.065322                       # mshr miss rate for ReadReq accesses
system.cpu1.dcache.ReadReq_avg_mshr_miss_latency::.cpu1.data 97065.204203                       # average ReadReq mshr miss latency
system.cpu1.dcache.ReadReq_avg_mshr_miss_latency::total 97065.204203                       # average ReadReq mshr miss latency
system.cpu1.dcache.WriteReq_hits::.cpu1.data      1348794                       # number of WriteReq hits
system.cpu1.dcache.WriteReq_hits::total       1348794                       # number of WriteReq hits
system.cpu1.dcache.WriteReq_misses::.cpu1.data       981461                       # number of WriteReq misses
system.cpu1.dcache.WriteReq_misses::total       981461                       # number of WriteReq misses
system.cpu1.dcache.WriteReq_miss_latency::.cpu1.data  77489414997                       # number of WriteReq miss cycles
system.cpu1.dcache.WriteReq_miss_latency::total  77489414997                       # number of WriteReq miss cycles
system.cpu1.dcache.WriteReq_accesses::.cpu1.data      2330255                       # number of WriteReq accesses(hits+misses)
system.cpu1.dcache.WriteReq_accesses::total      2330255                       # number of WriteReq accesses(hits+misses)
system.cpu1.dcache.WriteReq_miss_rate::.cpu1.data     0.421182                       # miss rate for WriteReq accesses
system.cpu1.dcache.WriteReq_miss_rate::total     0.421182                       # miss rate for WriteReq accesses
system.cpu1.dcache.WriteReq_avg_miss_latency::.cpu1.data 78953.127019                       # average WriteReq miss latency
system.cpu1.dcache.WriteReq_avg_miss_latency::total 78953.127019                       # average WriteReq miss latency
system.cpu1.dcache.WriteReq_mshr_hits::.cpu1.data       881442                       # number of WriteReq MSHR hits
system.cpu1.dcache.WriteReq_mshr_hits::total       881442                       # number of WriteReq MSHR hits
system.cpu1.dcache.WriteReq_mshr_misses::.cpu1.data       100019                       # number of WriteReq MSHR misses
system.cpu1.dcache.WriteReq_mshr_misses::total       100019                       # number of WriteReq MSHR misses
system.cpu1.dcache.WriteReq_mshr_miss_latency::.cpu1.data   7018710000                       # number of WriteReq MSHR miss cycles
system.cpu1.dcache.WriteReq_mshr_miss_latency::total   7018710000                       # number of WriteReq MSHR miss cycles
system.cpu1.dcache.WriteReq_mshr_miss_rate::.cpu1.data     0.042922                       # mshr miss rate for WriteReq accesses
system.cpu1.dcache.WriteReq_mshr_miss_rate::total     0.042922                       # mshr miss rate for WriteReq accesses
system.cpu1.dcache.WriteReq_avg_mshr_miss_latency::.cpu1.data 70173.766984                       # average WriteReq mshr miss latency
system.cpu1.dcache.WriteReq_avg_mshr_miss_latency::total 70173.766984                       # average WriteReq mshr miss latency
system.cpu1.dcache.LoadLockedReq_hits::.cpu1.data      1550654                       # number of LoadLockedReq hits
system.cpu1.dcache.LoadLockedReq_hits::total      1550654                       # number of LoadLockedReq hits
system.cpu1.dcache.LoadLockedReq_misses::.cpu1.data        23333                       # number of LoadLockedReq misses
system.cpu1.dcache.LoadLockedReq_misses::total        23333                       # number of LoadLockedReq misses
system.cpu1.dcache.LoadLockedReq_miss_latency::.cpu1.data    584212000                       # number of LoadLockedReq miss cycles
system.cpu1.dcache.LoadLockedReq_miss_latency::total    584212000                       # number of LoadLockedReq miss cycles
system.cpu1.dcache.LoadLockedReq_accesses::.cpu1.data      1573987                       # number of LoadLockedReq accesses(hits+misses)
system.cpu1.dcache.LoadLockedReq_accesses::total      1573987                       # number of LoadLockedReq accesses(hits+misses)
system.cpu1.dcache.LoadLockedReq_miss_rate::.cpu1.data     0.014824                       # miss rate for LoadLockedReq accesses
system.cpu1.dcache.LoadLockedReq_miss_rate::total     0.014824                       # miss rate for LoadLockedReq accesses
system.cpu1.dcache.LoadLockedReq_avg_miss_latency::.cpu1.data 25038.014829                       # average LoadLockedReq miss latency
system.cpu1.dcache.LoadLockedReq_avg_miss_latency::total 25038.014829                       # average LoadLockedReq miss latency
system.cpu1.dcache.LoadLockedReq_mshr_hits::.cpu1.data          109                       # number of LoadLockedReq MSHR hits
system.cpu1.dcache.LoadLockedReq_mshr_hits::total          109                       # number of LoadLockedReq MSHR hits
system.cpu1.dcache.LoadLockedReq_mshr_misses::.cpu1.data        23224                       # number of LoadLockedReq MSHR misses
system.cpu1.dcache.LoadLockedReq_mshr_misses::total        23224                       # number of LoadLockedReq MSHR misses
system.cpu1.dcache.LoadLockedReq_mshr_miss_latency::.cpu1.data    554363000                       # number of LoadLockedReq MSHR miss cycles
system.cpu1.dcache.LoadLockedReq_mshr_miss_latency::total    554363000                       # number of LoadLockedReq MSHR miss cycles
system.cpu1.dcache.LoadLockedReq_mshr_miss_rate::.cpu1.data     0.014755                       # mshr miss rate for LoadLockedReq accesses
system.cpu1.dcache.LoadLockedReq_mshr_miss_rate::total     0.014755                       # mshr miss rate for LoadLockedReq accesses
system.cpu1.dcache.LoadLockedReq_avg_mshr_miss_latency::.cpu1.data 23870.263520                       # average LoadLockedReq mshr miss latency
system.cpu1.dcache.LoadLockedReq_avg_mshr_miss_latency::total 23870.263520                       # average LoadLockedReq mshr miss latency
system.cpu1.dcache.StoreCondReq_hits::.cpu1.data      1573514                       # number of StoreCondReq hits
system.cpu1.dcache.StoreCondReq_hits::total      1573514                       # number of StoreCondReq hits
system.cpu1.dcache.StoreCondReq_misses::.cpu1.data          332                       # number of StoreCondReq misses
system.cpu1.dcache.StoreCondReq_misses::total          332                       # number of StoreCondReq misses
system.cpu1.dcache.StoreCondReq_miss_latency::.cpu1.data      1763000                       # number of StoreCondReq miss cycles
system.cpu1.dcache.StoreCondReq_miss_latency::total      1763000                       # number of StoreCondReq miss cycles
system.cpu1.dcache.StoreCondReq_accesses::.cpu1.data      1573846                       # number of StoreCondReq accesses(hits+misses)
system.cpu1.dcache.StoreCondReq_accesses::total      1573846                       # number of StoreCondReq accesses(hits+misses)
system.cpu1.dcache.StoreCondReq_miss_rate::.cpu1.data     0.000211                       # miss rate for StoreCondReq accesses
system.cpu1.dcache.StoreCondReq_miss_rate::total     0.000211                       # miss rate for StoreCondReq accesses
system.cpu1.dcache.StoreCondReq_avg_miss_latency::.cpu1.data  5310.240964                       # average StoreCondReq miss latency
system.cpu1.dcache.StoreCondReq_avg_miss_latency::total  5310.240964                       # average StoreCondReq miss latency
system.cpu1.dcache.StoreCondReq_mshr_misses::.cpu1.data          332                       # number of StoreCondReq MSHR misses
system.cpu1.dcache.StoreCondReq_mshr_misses::total          332                       # number of StoreCondReq MSHR misses
system.cpu1.dcache.StoreCondReq_mshr_miss_latency::.cpu1.data      1431000                       # number of StoreCondReq MSHR miss cycles
system.cpu1.dcache.StoreCondReq_mshr_miss_latency::total      1431000                       # number of StoreCondReq MSHR miss cycles
system.cpu1.dcache.StoreCondReq_mshr_miss_rate::.cpu1.data     0.000211                       # mshr miss rate for StoreCondReq accesses
system.cpu1.dcache.StoreCondReq_mshr_miss_rate::total     0.000211                       # mshr miss rate for StoreCondReq accesses
system.cpu1.dcache.StoreCondReq_avg_mshr_miss_latency::.cpu1.data  4310.240964                       # average StoreCondReq mshr miss latency
system.cpu1.dcache.StoreCondReq_avg_mshr_miss_latency::total  4310.240964                       # average StoreCondReq mshr miss latency
system.cpu1.dcache.SwapReq_hits::.cpu1.data          513                       # number of SwapReq hits
system.cpu1.dcache.SwapReq_hits::total            513                       # number of SwapReq hits
system.cpu1.dcache.SwapReq_misses::.cpu1.data         1000                       # number of SwapReq misses
system.cpu1.dcache.SwapReq_misses::total         1000                       # number of SwapReq misses
system.cpu1.dcache.SwapReq_miss_latency::.cpu1.data     12839000                       # number of SwapReq miss cycles
system.cpu1.dcache.SwapReq_miss_latency::total     12839000                       # number of SwapReq miss cycles
system.cpu1.dcache.SwapReq_accesses::.cpu1.data         1513                       # number of SwapReq accesses(hits+misses)
system.cpu1.dcache.SwapReq_accesses::total         1513                       # number of SwapReq accesses(hits+misses)
system.cpu1.dcache.SwapReq_miss_rate::.cpu1.data     0.660939                       # miss rate for SwapReq accesses
system.cpu1.dcache.SwapReq_miss_rate::total     0.660939                       # miss rate for SwapReq accesses
system.cpu1.dcache.SwapReq_avg_miss_latency::.cpu1.data        12839                       # average SwapReq miss latency
system.cpu1.dcache.SwapReq_avg_miss_latency::total        12839                       # average SwapReq miss latency
system.cpu1.dcache.SwapReq_mshr_misses::.cpu1.data         1000                       # number of SwapReq MSHR misses
system.cpu1.dcache.SwapReq_mshr_misses::total         1000                       # number of SwapReq MSHR misses
system.cpu1.dcache.SwapReq_mshr_miss_latency::.cpu1.data     11839000                       # number of SwapReq MSHR miss cycles
system.cpu1.dcache.SwapReq_mshr_miss_latency::total     11839000                       # number of SwapReq MSHR miss cycles
system.cpu1.dcache.SwapReq_mshr_miss_rate::.cpu1.data     0.660939                       # mshr miss rate for SwapReq accesses
system.cpu1.dcache.SwapReq_mshr_miss_rate::total     0.660939                       # mshr miss rate for SwapReq accesses
system.cpu1.dcache.SwapReq_avg_mshr_miss_latency::.cpu1.data        11839                       # average SwapReq mshr miss latency
system.cpu1.dcache.SwapReq_avg_mshr_miss_latency::total        11839                       # average SwapReq mshr miss latency
system.cpu1.dcache.tags.pwrStateResidencyTicks::UNDEFINED 275739040500                       # Cumulative time (in ticks) in various power states
system.cpu1.dcache.tags.tagsinuse           31.946676                       # Cycle average of tags in use
system.cpu1.dcache.tags.total_refs           46056452                       # Total number of references to valid blocks.
system.cpu1.dcache.tags.sampled_refs          3097430                       # Sample count of references to valid blocks.
system.cpu1.dcache.tags.avg_refs            14.869247                       # Average number of references to valid blocks.
system.cpu1.dcache.tags.warmup_cycle                0                       # Cycle when the warmup percentage was hit.
system.cpu1.dcache.tags.occ_blocks::.cpu1.data    31.946676                       # Average occupied blocks per requestor
system.cpu1.dcache.tags.occ_percent::.cpu1.data     0.998334                       # Average percentage of cache occupancy
system.cpu1.dcache.tags.occ_percent::total     0.998334                       # Average percentage of cache occupancy
system.cpu1.dcache.tags.occ_task_id_blocks::1024           28                       # Occupied blocks per task id
system.cpu1.dcache.tags.age_task_id_blocks_1024::1           28                       # Occupied blocks per task id
system.cpu1.dcache.tags.occ_task_id_percent::1024     0.875000                       # Percentage of cache occupancy per task id
system.cpu1.dcache.tags.tag_accesses        105102659                       # Number of tag accesses
system.cpu1.dcache.tags.data_accesses       105102659                       # Number of data accesses
system.cpu_clk_domain.clock                       500                       # Clock period in ticks
system.tol2bus.pwrStateResidencyTicks::UNDEFINED 275739040500                       # Cumulative time (in ticks) in various power states
system.tol2bus.trans_dist::ReadResp           7115617                       # Transaction distribution
system.tol2bus.trans_dist::WritebackDirty      1066907                       # Transaction distribution
system.tol2bus.trans_dist::WritebackClean      6759556                       # Transaction distribution
system.tol2bus.trans_dist::CleanEvict        29211183                       # Transaction distribution
system.tol2bus.trans_dist::HardPFReq         34252210                       # Transaction distribution
system.tol2bus.trans_dist::HardPFResp               1                       # Transaction distribution
system.tol2bus.trans_dist::UpgradeReq            1050                       # Transaction distribution
system.tol2bus.trans_dist::SCUpgradeReq           737                       # Transaction distribution
system.tol2bus.trans_dist::UpgradeResp           1787                       # Transaction distribution
system.tol2bus.trans_dist::ReadExReq           207420                       # Transaction distribution
system.tol2bus.trans_dist::ReadExResp          207420                       # Transaction distribution
system.tol2bus.trans_dist::ReadCleanReq        111767                       # Transaction distribution
system.tol2bus.trans_dist::ReadSharedReq      7003850                       # Transaction distribution
system.tol2bus.trans_dist::InvalidateReq            1                       # Transaction distribution
system.tol2bus.trans_dist::InvalidateResp            1                       # Transaction distribution
system.tol2bus.pkt_count_system.cpu0.icache.mem_side::system.l2.cpu_side       321021                       # Packet count per connected master and slave (bytes)
system.tol2bus.pkt_count_system.cpu0.dcache.mem_side::system.l2.cpu_side     12339823                       # Packet count per connected master and slave (bytes)
system.tol2bus.pkt_count_system.cpu1.icache.mem_side::system.l2.cpu_side        14280                       # Packet count per connected master and slave (bytes)
system.tol2bus.pkt_count_system.cpu1.dcache.mem_side::system.l2.cpu_side      9290184                       # Packet count per connected master and slave (bytes)
system.tol2bus.pkt_count::total              21965308                       # Packet count per connected master and slave (bytes)
system.tol2bus.pkt_size_system.cpu0.icache.mem_side::system.l2.cpu_side     13696896                       # Cumulative packet size per connected master and slave (bytes)
system.tol2bus.pkt_size_system.cpu0.dcache.mem_side::system.l2.cpu_side    526392128                       # Cumulative packet size per connected master and slave (bytes)
system.tol2bus.pkt_size_system.cpu1.icache.mem_side::system.l2.cpu_side       609280                       # Cumulative packet size per connected master and slave (bytes)
system.tol2bus.pkt_size_system.cpu1.dcache.mem_side::system.l2.cpu_side    396276928                       # Cumulative packet size per connected master and slave (bytes)
system.tol2bus.pkt_size::total              936975232                       # Cumulative packet size per connected master and slave (bytes)
system.tol2bus.snoops                        63974200                       # Total snoops (count)
system.tol2bus.snoopTraffic                  32592896                       # Total snoop traffic (bytes)
system.tol2bus.snoop_fanout::samples         71350146                       # Request fanout histogram
system.tol2bus.snoop_fanout::mean            0.084912                       # Request fanout histogram
system.tol2bus.snoop_fanout::stdev           0.286479                       # Request fanout histogram
system.tol2bus.snoop_fanout::underflows             0      0.00%      0.00% # Request fanout histogram
system.tol2bus.snoop_fanout::0               65447456     91.73%     91.73% # Request fanout histogram
system.tol2bus.snoop_fanout::1                5746863      8.05%     99.78% # Request fanout histogram
system.tol2bus.snoop_fanout::2                 155827      0.22%    100.00% # Request fanout histogram
system.tol2bus.snoop_fanout::3                      0      0.00%    100.00% # Request fanout histogram
system.tol2bus.snoop_fanout::4                      0      0.00%    100.00% # Request fanout histogram
system.tol2bus.snoop_fanout::5                      0      0.00%    100.00% # Request fanout histogram
system.tol2bus.snoop_fanout::6                      0      0.00%    100.00% # Request fanout histogram
system.tol2bus.snoop_fanout::7                      0      0.00%    100.00% # Request fanout histogram
system.tol2bus.snoop_fanout::8                      0      0.00%    100.00% # Request fanout histogram
system.tol2bus.snoop_fanout::overflows              0      0.00%    100.00% # Request fanout histogram
system.tol2bus.snoop_fanout::min_value              0                       # Request fanout histogram
system.tol2bus.snoop_fanout::max_value              2                       # Request fanout histogram
system.tol2bus.snoop_fanout::total           71350146                       # Request fanout histogram
system.tol2bus.reqLayer0.occupancy        14736476838                       # Layer occupancy (ticks)
system.tol2bus.reqLayer0.utilization              5.3                       # Layer utilization (%)
system.tol2bus.respLayer1.occupancy        6173963134                       # Layer occupancy (ticks)
system.tol2bus.respLayer1.utilization             2.2                       # Layer utilization (%)
system.tol2bus.respLayer0.occupancy         160531957                       # Layer occupancy (ticks)
system.tol2bus.respLayer0.utilization             0.1                       # Layer utilization (%)
system.tol2bus.respLayer3.occupancy        4649065891                       # Layer occupancy (ticks)
system.tol2bus.respLayer3.utilization             1.7                       # Layer utilization (%)
system.tol2bus.respLayer2.occupancy           7163952                       # Layer occupancy (ticks)
system.tol2bus.respLayer2.utilization             0.0                       # Layer utilization (%)
system.tol2bus.snoopLayer0.occupancy             1501                       # Layer occupancy (ticks)
system.tol2bus.snoopLayer0.utilization            0.0                       # Layer utilization (%)

---------- End Simulation Statistics   ----------
