Redirecting stdout to /vol1/msoyturk/gem5/results/bfs/slashdot.el/prefetch_IndirectMemoryPrefetcher_SecondChanceRP/output.txt
Redirecting stderr to /vol1/msoyturk/gem5/results/bfs/slashdot.el/prefetch_IndirectMemoryPrefetcher_SecondChanceRP/error.txt
gem5 Simulator System.  http://gem5.org
gem5 is copyrighted software; use the --copyright option for details.

gem5 compiled Apr 26 2020 13:32:47
gem5 started May  1 2020 02:43:31
gem5 executing on draco, pid 17923
command line: /vol1/msoyturk/gem5/build/RISCV/gem5.fast -re --outdir=/vol1/msoyturk/gem5/results/bfs/slashdot.el/prefetch_IndirectMemoryPrefetcher_SecondChanceRP --stdout-file=output.txt --stderr-file=error.txt /vol1/msoyturk/gem5/configs/example/my_se.py -c /vol1/msoyturk/gem5/gapbs/bfs -o '-f /vol1/msoyturk/gem5/gapbs/test/graphs/slashdot.el' --caches --l1d_size=2kB --l1i_size=2kB --cpu-type=DerivO3CPU -n 4 --mem-size=512MB --l2cache --l2_size=4kB --l2-hwp-type=IndirectMemoryPrefetcher --l2-replacement-policy=SecondChanceRP --l1i_mshrs=4 --l1d_mshrs=4 --l2_mshrs=20 --l1i_write_buffers=8 --l1d_write_buffers=8 --l2_write_buffers=8

info: Standard input is not a terminal, disabling listeners.
Warning: l2-hwp-type is set ( IndirectMemoryPrefetcher ), but the current l2 has a default Hardware Prefetcher of type <class 'm5.params.NullSimObject'> , using the specified by the flag option.
Global frequency set at 1000000000000 ticks per second
**** REAL SIMULATION ****
Read Time:           0.72116
Build Time:          0.15151
Graph has 77360 nodes and 828161 directed edges for degree: 10
Source:                15461
    i                0.00027
   td          3     0.00002
   td        410     0.00004
   td      16238     0.00112
    e                0.00032
   bu      48873     0.00134
   bu      10761     0.00039
   bu        997     0.00015
    c                0.00022
   td         69     0.00004
   td          8     0.00002
   td          0     0.00001
Trial Time:          0.00431
Source:                 1347
    i                0.00027
   td         14     0.00001
   td       3029     0.00016
    e                0.00006
   bu      33152     0.00177
   bu      36234     0.00085
   bu       4519     0.00022
   bu        380     0.00014
    c                0.00021
   td         31     0.00002
   td          0     0.00001
Trial Time:          0.00406
Source:                20945
    i                0.00027
   td          1     0.00001
   td        195     0.00003
   td      10192     0.00091
    e                0.00019
   bu      49869     0.00150
   bu      15574     0.00048
   bu       1405     0.00016
    c                0.00022
   td        113     0.00006
   td         10     0.00002
   td          0     0.00001
Trial Time:          0.00422
Source:                21436
    i                0.00027
   td         32     0.00002
   td       5345     0.00046
    e                0.00009
   bu      44625     0.00170
   bu      24712     0.00071
   bu       2433     0.00019
    c                0.00024
   td        188     0.00008
   td         23     0.00002
   td          1     0.00001
   td          0     0.00001
Trial Time:          0.00416
Source:                31632
    i                0.00027
   td          1     0.00001
   td       2506     0.00015
    e                0.00004
   bu      26369     0.00200
   bu      41263     0.00113
   bu       6659     0.00030
   bu        511     0.00015
    c                0.00021
   td         47     0.00003
   td          3     0.00001
   td          0     0.00001
Trial Time:          0.00469
Source:                71728
    i                0.00027
   td          4     0.00001
   td         26     0.00002
   td       1788     0.00018
    e                0.00004
   bu      31862     0.00194
   bu      37941     0.00107
   bu       5252     0.00028
   bu        449     0.00014
    c                0.00021
   td         35     0.00003
   td          2     0.00001
   td          0     0.00001
Trial Time:          0.00459
Source:                18442
    i                0.00027
   td         19     0.00002
   td       2278     0.00019
    e                0.00005
   bu      35307     0.00186
   bu      35307     0.00095
   bu       4043     0.00024
    c                0.00026
   td        373     0.00014
   td         31     0.00002
   td          1     0.00001
   td          0     0.00001
Trial Time:          0.00438
Source:                39870
    i                0.00027
   td          1     0.00001
   td        211     0.00004
   td      12966     0.00109
    e                0.00025
   bu      49646     0.00146
   bu      13314     0.00046
   bu       1114     0.00016
    c                0.00022
   td         97     0.00005
   td         10     0.00002
   td          0     0.00001
Trial Time:          0.00439
Source:                65816
    i                0.00027
   td          1     0.00001
   td          1     0.00001
   td        152     0.00003
   td      10588     0.00087
    e                0.00019
   bu      49611     0.00147
   bu      15537     0.00047
   bu       1362     0.00016
    c                0.00022
   td         99     0.00005
   td          8     0.00002
   td          0     0.00001
Trial Time:          0.00417
Source:                13597
    i                0.00027
   td         16     0.00001
   td       1450     0.00011
    e                0.00003
   bu      26251     0.00203
   bu      42129     0.00114
   bu       6934     0.00031
   bu        534     0.00015
    c                0.00021
   td         42     0.00003
   td          3     0.00001
   td          0     0.00001
Trial Time:          0.00467
Source:                 8623
    i                0.00027
   td         62     0.00002
   td       5200     0.00041
    e                0.00011
   bu      45403     0.00168
   bu      24247     0.00069
   bu       2233     0.00020
    c                0.00024
   td        196     0.00008
   td         17     0.00002
   td          1     0.00001
   td          0     0.00001
Trial Time:          0.00409
Source:                71206
    i                0.00027
   td          1     0.00001
   td         70     0.00002
   td       4714     0.00047
    e                0.00009
   bu      44517     0.00172
   bu      25316     0.00074
   bu       2507     0.00020
    c                0.00024
   td        214     0.00009
   td         20     0.00002
   td          0     0.00001
Trial Time:          0.00424
Source:                62693
    i                0.00027
   td          1     0.00001
   td          1     0.00001
   td         42     0.00002
   td       2902     0.00024
    e                0.00006
   bu      37333     0.00182
   bu      32745     0.00088
   bu       3979     0.00023
    c                0.00026
   td        323     0.00012
   td         31     0.00002
   td          2     0.00001
   td          0     0.00001
Trial Time:          0.00437
Source:                 7611
    i                0.00027
   td         28     0.00002
   td       2667     0.00024
    e                0.00005
   bu      38303     0.00181
   bu      32416     0.00088
   bu       3618     0.00023
    c                0.00025
   td        295     0.00012
   td         30     0.00002
   td          2     0.00001
   td          0     0.00001
Trial Time:          0.00428
Source:                61632
    i                0.00027
   td          1     0.00001
   td         19     0.00002
   td        869     0.00010
    e                0.00002
   bu      26060     0.00206
   bu      43345     0.00116
   bu       6466     0.00030
   bu        551     0.00014
    c                0.00021
   td         47     0.00003
   td          1     0.00001
   td          0     0.00001
Trial Time:          0.00472
Source:                25015
    i                0.00027
   td          1     0.00001
   td        199     0.00003
   td       9381     0.00084
    e                0.00019
   bu      49378     0.00152
   bu      16807     0.00050
   bu       1472     0.00016
    c                0.00022
   td        111     0.00006
   td         10     0.00002
   td          0     0.00001
Trial Time:          0.00419
Average Time:        0.00434
Exiting @ tick 1000598499000 because exiting with last active thread context
