
---------- Begin Simulation Statistics ----------
final_tick                               1234153557000                       # Number of ticks from beginning of simulation (restored from checkpoints and never reset)
host_inst_rate                                  61534                       # Simulator instruction rate (inst/s)
host_mem_usage                                 701956                       # Number of bytes of host memory used
host_op_rate                                    61714                       # Simulator op (including micro ops) rate (op/s)
host_seconds                                 23346.77                       # Real time elapsed on the host
host_tick_rate                               52861861                       # Simulator tick rate (ticks/s)
sim_freq                                 1000000000000                       # Frequency of simulated ticks
sim_insts                                  1436611781                       # Number of instructions simulated
sim_ops                                    1440815549                       # Number of ops (including micro ops) simulated
sim_seconds                                  1.234154                       # Number of seconds simulated
sim_ticks                                1234153557000                       # Number of ticks simulated
system.cpu0.branchPred.BTBCorrect                   0                       # Number of correct BTB predictions (this stat may not work properly.
system.cpu0.branchPred.BTBHitPct            85.762565                       # BTB Hit Percentage
system.cpu0.branchPred.BTBHits              180264116                       # Number of BTB hits
system.cpu0.branchPred.BTBLookups           210189745                       # Number of BTB lookups
system.cpu0.branchPred.RASInCorrect                 0                       # Number of incorrect RAS predictions.
system.cpu0.branchPred.condIncorrect         13307438                       # Number of conditional branches incorrect
system.cpu0.branchPred.condPredicted        280708139                       # Number of conditional branches predicted
system.cpu0.branchPred.indirectHits          23632247                       # Number of indirect target hits.
system.cpu0.branchPred.indirectLookups       24805303                       # Number of indirect predictor lookups.
system.cpu0.branchPred.indirectMisses         1173056                       # Number of indirect misses.
system.cpu0.branchPred.lookups              356354423                       # Number of BP lookups
system.cpu0.branchPred.usedRAS                      0                       # Number of times the RAS was used to get a target.
system.cpu0.branchPredindirectMispredicted      2188000                       # Number of mispredicted indirect branches.
system.cpu0.commit.amos                       2100287                       # Number of atomic instructions committed
system.cpu0.commit.branchMispredicts          8737742                       # The number of times a branch was mispredicted
system.cpu0.commit.branches                 329548045                       # Number of branches committed
system.cpu0.commit.bw_lim_events             48563262                       # number cycles where commit BW limit reached
system.cpu0.commit.commitNonSpecStalls        6309785                       # The number of times commit has been forced to stall to communicate backwards
system.cpu0.commit.commitSquashedInsts       94339777                       # The number of squashed insts skipped by commit
system.cpu0.commit.committedInsts          1316561652                       # Number of instructions committed
system.cpu0.commit.committedOps            1318665236                       # Number of ops (including micro ops) committed
system.cpu0.commit.committed_per_cycle::samples   2303922745                       # Number of insts commited each cycle
system.cpu0.commit.committed_per_cycle::mean     0.572357                       # Number of insts commited each cycle
system.cpu0.commit.committed_per_cycle::stdev     1.429492                       # Number of insts commited each cycle
system.cpu0.commit.committed_per_cycle::underflows            0      0.00%      0.00% # Number of insts commited each cycle
system.cpu0.commit.committed_per_cycle::0   1719292421     74.62%     74.62% # Number of insts commited each cycle
system.cpu0.commit.committed_per_cycle::1    334967640     14.54%     89.16% # Number of insts commited each cycle
system.cpu0.commit.committed_per_cycle::2     80287293      3.48%     92.65% # Number of insts commited each cycle
system.cpu0.commit.committed_per_cycle::3     79413676      3.45%     96.10% # Number of insts commited each cycle
system.cpu0.commit.committed_per_cycle::4     27189390      1.18%     97.28% # Number of insts commited each cycle
system.cpu0.commit.committed_per_cycle::5      3256299      0.14%     97.42% # Number of insts commited each cycle
system.cpu0.commit.committed_per_cycle::6      5332517      0.23%     97.65% # Number of insts commited each cycle
system.cpu0.commit.committed_per_cycle::7      5620247      0.24%     97.89% # Number of insts commited each cycle
system.cpu0.commit.committed_per_cycle::8     48563262      2.11%    100.00% # Number of insts commited each cycle
system.cpu0.commit.committed_per_cycle::overflows            0      0.00%    100.00% # Number of insts commited each cycle
system.cpu0.commit.committed_per_cycle::min_value            0                       # Number of insts commited each cycle
system.cpu0.commit.committed_per_cycle::max_value            8                       # Number of insts commited each cycle
system.cpu0.commit.committed_per_cycle::total   2303922745                       # Number of insts commited each cycle
system.cpu0.commit.fp_insts                        65                       # Number of committed floating point instructions.
system.cpu0.commit.function_calls            25143879                       # Number of function calls committed.
system.cpu0.commit.int_insts               1273933211                       # Number of committed integer instructions.
system.cpu0.commit.loads                    405173342                       # Number of loads committed
system.cpu0.commit.membars                    4203741                       # Number of memory barriers committed
system.cpu0.commit.op_class_0::No_OpClass      4203750      0.32%      0.32% # Class of committed instruction
system.cpu0.commit.op_class_0::IntAlu       742070190     56.27%     56.59% # Class of committed instruction
system.cpu0.commit.op_class_0::IntMult       11831810      0.90%     57.49% # Class of committed instruction
system.cpu0.commit.op_class_0::IntDiv         2099839      0.16%     57.65% # Class of committed instruction
system.cpu0.commit.op_class_0::FloatAdd             0      0.00%     57.65% # Class of committed instruction
system.cpu0.commit.op_class_0::FloatCmp             6      0.00%     57.65% # Class of committed instruction
system.cpu0.commit.op_class_0::FloatCvt            16      0.00%     57.65% # Class of committed instruction
system.cpu0.commit.op_class_0::FloatMult            0      0.00%     57.65% # Class of committed instruction
system.cpu0.commit.op_class_0::FloatMultAcc            0      0.00%     57.65% # Class of committed instruction
system.cpu0.commit.op_class_0::FloatDiv             2      0.00%     57.65% # Class of committed instruction
system.cpu0.commit.op_class_0::FloatMisc            6      0.00%     57.65% # Class of committed instruction
system.cpu0.commit.op_class_0::FloatSqrt            0      0.00%     57.65% # Class of committed instruction
system.cpu0.commit.op_class_0::SimdAdd              0      0.00%     57.65% # Class of committed instruction
system.cpu0.commit.op_class_0::SimdAddAcc            0      0.00%     57.65% # Class of committed instruction
system.cpu0.commit.op_class_0::SimdAlu              0      0.00%     57.65% # Class of committed instruction
system.cpu0.commit.op_class_0::SimdCmp              0      0.00%     57.65% # Class of committed instruction
system.cpu0.commit.op_class_0::SimdCvt              0      0.00%     57.65% # Class of committed instruction
system.cpu0.commit.op_class_0::SimdMisc             0      0.00%     57.65% # Class of committed instruction
system.cpu0.commit.op_class_0::SimdMult             0      0.00%     57.65% # Class of committed instruction
system.cpu0.commit.op_class_0::SimdMultAcc            0      0.00%     57.65% # Class of committed instruction
system.cpu0.commit.op_class_0::SimdShift            0      0.00%     57.65% # Class of committed instruction
system.cpu0.commit.op_class_0::SimdShiftAcc            0      0.00%     57.65% # Class of committed instruction
system.cpu0.commit.op_class_0::SimdDiv              0      0.00%     57.65% # Class of committed instruction
system.cpu0.commit.op_class_0::SimdSqrt             0      0.00%     57.65% # Class of committed instruction
system.cpu0.commit.op_class_0::SimdFloatAdd            0      0.00%     57.65% # Class of committed instruction
system.cpu0.commit.op_class_0::SimdFloatAlu            0      0.00%     57.65% # Class of committed instruction
system.cpu0.commit.op_class_0::SimdFloatCmp            0      0.00%     57.65% # Class of committed instruction
system.cpu0.commit.op_class_0::SimdFloatCvt            0      0.00%     57.65% # Class of committed instruction
system.cpu0.commit.op_class_0::SimdFloatDiv            0      0.00%     57.65% # Class of committed instruction
system.cpu0.commit.op_class_0::SimdFloatMisc            0      0.00%     57.65% # Class of committed instruction
system.cpu0.commit.op_class_0::SimdFloatMult            0      0.00%     57.65% # Class of committed instruction
system.cpu0.commit.op_class_0::SimdFloatMultAcc            0      0.00%     57.65% # Class of committed instruction
system.cpu0.commit.op_class_0::SimdFloatSqrt            0      0.00%     57.65% # Class of committed instruction
system.cpu0.commit.op_class_0::SimdReduceAdd            0      0.00%     57.65% # Class of committed instruction
system.cpu0.commit.op_class_0::SimdReduceAlu            0      0.00%     57.65% # Class of committed instruction
system.cpu0.commit.op_class_0::SimdReduceCmp            0      0.00%     57.65% # Class of committed instruction
system.cpu0.commit.op_class_0::SimdFloatReduceAdd            0      0.00%     57.65% # Class of committed instruction
system.cpu0.commit.op_class_0::SimdFloatReduceCmp            0      0.00%     57.65% # Class of committed instruction
system.cpu0.commit.op_class_0::SimdAes              0      0.00%     57.65% # Class of committed instruction
system.cpu0.commit.op_class_0::SimdAesMix            0      0.00%     57.65% # Class of committed instruction
system.cpu0.commit.op_class_0::SimdSha1Hash            0      0.00%     57.65% # Class of committed instruction
system.cpu0.commit.op_class_0::SimdSha1Hash2            0      0.00%     57.65% # Class of committed instruction
system.cpu0.commit.op_class_0::SimdSha256Hash            0      0.00%     57.65% # Class of committed instruction
system.cpu0.commit.op_class_0::SimdSha256Hash2            0      0.00%     57.65% # Class of committed instruction
system.cpu0.commit.op_class_0::SimdShaSigma2            0      0.00%     57.65% # Class of committed instruction
system.cpu0.commit.op_class_0::SimdShaSigma3            0      0.00%     57.65% # Class of committed instruction
system.cpu0.commit.op_class_0::SimdPredAlu            0      0.00%     57.65% # Class of committed instruction
system.cpu0.commit.op_class_0::MemRead      407273617     30.89%     88.53% # Class of committed instruction
system.cpu0.commit.op_class_0::MemWrite     151185965     11.47%    100.00% # Class of committed instruction
system.cpu0.commit.op_class_0::FloatMemRead           12      0.00%    100.00% # Class of committed instruction
system.cpu0.commit.op_class_0::FloatMemWrite           23      0.00%    100.00% # Class of committed instruction
system.cpu0.commit.op_class_0::IprAccess            0      0.00%    100.00% # Class of committed instruction
system.cpu0.commit.op_class_0::InstPrefetch            0      0.00%    100.00% # Class of committed instruction
system.cpu0.commit.op_class_0::total       1318665236                       # Class of committed instruction
system.cpu0.commit.refs                     558459617                       # Number of memory references committed
system.cpu0.commit.swp_count                        0                       # Number of s/w prefetches committed
system.cpu0.commit.vec_insts                        0                       # Number of committed Vector instructions.
system.cpu0.committedInsts                 1316561652                       # Number of Instructions Simulated
system.cpu0.committedOps                   1318665236                       # Number of Ops (including micro ops) Simulated
system.cpu0.cpi                              1.867475                       # CPI: Cycles Per Instruction
system.cpu0.cpi_total                        1.867475                       # CPI: Total CPI of All Threads
system.cpu0.decode.BlockedCycles            470382139                       # Number of cycles decode is blocked
system.cpu0.decode.BranchMispred              4621180                       # Number of times decode detected a branch misprediction
system.cpu0.decode.BranchResolved           177550926                       # Number of times decode resolved a branch
system.cpu0.decode.DecodedInsts            1435807758                       # Number of instructions handled by decode
system.cpu0.decode.IdleCycles               837308185                       # Number of cycles decode is idle
system.cpu0.decode.RunCycles                997430762                       # Number of cycles decode is running
system.cpu0.decode.SquashCycles               8749145                       # Number of cycles decode is squashing
system.cpu0.decode.SquashedInsts             12322348                       # Number of squashed instructions handled by decode
system.cpu0.decode.UnblockCycles              7764202                       # Number of cycles decode is unblocking
system.cpu0.dtb.accesses                            0                       # DTB accesses
system.cpu0.dtb.hits                                0                       # DTB hits
system.cpu0.dtb.misses                              0                       # DTB misses
system.cpu0.dtb.read_accesses                       0                       # DTB read accesses
system.cpu0.dtb.read_hits                           0                       # DTB read hits
system.cpu0.dtb.read_misses                         0                       # DTB read misses
system.cpu0.dtb.write_accesses                      0                       # DTB write accesses
system.cpu0.dtb.write_hits                          0                       # DTB write hits
system.cpu0.dtb.write_misses                        0                       # DTB write misses
system.cpu0.fetch.Branches                  356354423                       # Number of branches that fetch encountered
system.cpu0.fetch.CacheLines                258333419                       # Number of cache lines fetched
system.cpu0.fetch.Cycles                   1478126535                       # Number of cycles fetch has run and was not squashing or blocked
system.cpu0.fetch.IcacheSquashes              4063813                       # Number of outstanding Icache misses that were squashed
system.cpu0.fetch.IcacheWaitRetryStallCycles          235                       # Number of stall cycles due to full MSHR
system.cpu0.fetch.Insts                    1465666074                       # Number of instructions fetch has processed
system.cpu0.fetch.MiscStallCycles                  17                       # Number of cycles fetch has spent waiting on interrupts, or bad addresses, or out of MSHRs
system.cpu0.fetch.PendingTrapStallCycles            6                       # Number of stall cycles due to pending traps
system.cpu0.fetch.SquashCycles               26637684                       # Number of cycles fetch has spent squashing
system.cpu0.fetch.branchRate                 0.144939                       # Number of branch fetches per cycle
system.cpu0.fetch.icacheStallCycles         830188798                       # Number of cycles fetch is stalled on an Icache miss
system.cpu0.fetch.predictedBranches         203896363                       # Number of branches that fetch has predicted taken
system.cpu0.fetch.rate                       0.596127                       # Number of inst fetches per cycle
system.cpu0.fetch.rateDist::samples        2321634433                       # Number of instructions fetched each cycle (Total)
system.cpu0.fetch.rateDist::mean             0.632629                       # Number of instructions fetched each cycle (Total)
system.cpu0.fetch.rateDist::stdev            0.872588                       # Number of instructions fetched each cycle (Total)
system.cpu0.fetch.rateDist::underflows              0      0.00%      0.00% # Number of instructions fetched each cycle (Total)
system.cpu0.fetch.rateDist::0              1266084980     54.53%     54.53% # Number of instructions fetched each cycle (Total)
system.cpu0.fetch.rateDist::1               784772315     33.80%     88.34% # Number of instructions fetched each cycle (Total)
system.cpu0.fetch.rateDist::2               165286231      7.12%     95.46% # Number of instructions fetched each cycle (Total)
system.cpu0.fetch.rateDist::3                83414353      3.59%     99.05% # Number of instructions fetched each cycle (Total)
system.cpu0.fetch.rateDist::4                11848117      0.51%     99.56% # Number of instructions fetched each cycle (Total)
system.cpu0.fetch.rateDist::5                 7726033      0.33%     99.89% # Number of instructions fetched each cycle (Total)
system.cpu0.fetch.rateDist::6                  397113      0.02%     99.91% # Number of instructions fetched each cycle (Total)
system.cpu0.fetch.rateDist::7                 2101632      0.09%    100.00% # Number of instructions fetched each cycle (Total)
system.cpu0.fetch.rateDist::8                    3659      0.00%    100.00% # Number of instructions fetched each cycle (Total)
system.cpu0.fetch.rateDist::overflows               0      0.00%    100.00% # Number of instructions fetched each cycle (Total)
system.cpu0.fetch.rateDist::min_value               0                       # Number of instructions fetched each cycle (Total)
system.cpu0.fetch.rateDist::max_value               8                       # Number of instructions fetched each cycle (Total)
system.cpu0.fetch.rateDist::total          2321634433                       # Number of instructions fetched each cycle (Total)
system.cpu0.fp_regfile_reads                       57                       # number of floating regfile reads
system.cpu0.fp_regfile_writes                      31                       # number of floating regfile writes
system.cpu0.idleCycles                      137011363                       # Total number of cycles that the CPU has spent unscheduled due to idling
system.cpu0.iew.branchMispredicts             8873341                       # Number of branch mispredicts detected at execute
system.cpu0.iew.exec_branches               341087162                       # Number of branches executed
system.cpu0.iew.exec_nop                            0                       # number of nop insts executed
system.cpu0.iew.exec_rate                    0.568268                       # Inst execution rate
system.cpu0.iew.exec_refs                   605778089                       # number of memory reference insts executed
system.cpu0.iew.exec_stores                 161778857                       # Number of stores executed
system.cpu0.iew.exec_swp                            0                       # number of swp insts executed
system.cpu0.iew.iewBlockCycles              373256485                       # Number of cycles IEW is blocking
system.cpu0.iew.iewDispLoadInsts            442541956                       # Number of dispatched load instructions
system.cpu0.iew.iewDispNonSpecInsts           2457260                       # Number of dispatched non-speculative instructions
system.cpu0.iew.iewDispSquashedInsts          5710622                       # Number of squashed instructions skipped by dispatch
system.cpu0.iew.iewDispStoreInsts           163115746                       # Number of dispatched store instructions
system.cpu0.iew.iewDispatchedInsts         1412942120                       # Number of instructions dispatched to IQ
system.cpu0.iew.iewExecLoadInsts            443999232                       # Number of load instructions executed
system.cpu0.iew.iewExecSquashedInsts          9811368                       # Number of squashed instructions skipped in execute
system.cpu0.iew.iewExecutedInsts           1397170072                       # Number of executed instructions
system.cpu0.iew.iewIQFullEvents               2213717                       # Number of times the IQ has become full, causing a stall
system.cpu0.iew.iewIdleCycles                       0                       # Number of cycles IEW is idle
system.cpu0.iew.iewLSQFullEvents              8875385                       # Number of times the LSQ has become full, causing a stall
system.cpu0.iew.iewSquashCycles               8749145                       # Number of cycles IEW is squashing
system.cpu0.iew.iewUnblockCycles             13660296                       # Number of cycles IEW is unblocking
system.cpu0.iew.lsq.thread0.blockedLoads            0                       # Number of blocked loads due to partial load-store forwarding
system.cpu0.iew.lsq.thread0.cacheBlocked       503321                       # Number of times an access to memory failed due to the cache being blocked
system.cpu0.iew.lsq.thread0.forwLoads        26510330                       # Number of loads that had data forwarded from stores
system.cpu0.iew.lsq.thread0.ignoredResponses        38587                       # Number of memory responses ignored because the instruction is squashed
system.cpu0.iew.lsq.thread0.invAddrLoads            0                       # Number of loads ignored due to an invalid address
system.cpu0.iew.lsq.thread0.invAddrSwpfs            0                       # Number of software prefetches ignored due to an invalid address
system.cpu0.iew.lsq.thread0.memOrderViolation        10977                       # Number of memory ordering violations
system.cpu0.iew.lsq.thread0.rescheduledLoads      6765267                       # Number of loads that were rescheduled
system.cpu0.iew.lsq.thread0.squashedLoads     37368614                       # Number of loads squashed
system.cpu0.iew.lsq.thread0.squashedStores      9829471                       # Number of stores squashed
system.cpu0.iew.memOrderViolationEvents         10977                       # Number of memory order violations
system.cpu0.iew.predictedNotTakenIncorrect       757723                       # Number of branches that were predicted not taken incorrectly
system.cpu0.iew.predictedTakenIncorrect       8115618                       # Number of branches that were predicted taken incorrectly
system.cpu0.iew.wb_consumers                626183140                       # num instructions consuming a value
system.cpu0.iew.wb_count                   1383648195                       # cumulative count of insts written-back
system.cpu0.iew.wb_fanout                    0.852139                       # average fanout of values written-back
system.cpu0.iew.wb_producers                533595139                       # num instructions producing a value
system.cpu0.iew.wb_rate                      0.562768                       # insts written-back per cycle
system.cpu0.iew.wb_sent                    1383751233                       # cumulative count of insts sent to commit
system.cpu0.int_regfile_reads              1715171569                       # number of integer regfile reads
system.cpu0.int_regfile_writes              890627399                       # number of integer regfile writes
system.cpu0.ipc                              0.535482                       # IPC: Instructions Per Cycle
system.cpu0.ipc_total                        0.535482                       # IPC: Total IPC of All Threads
system.cpu0.iq.FU_type_0::No_OpClass          4205628      0.30%      0.30% # Type of FU issued
system.cpu0.iq.FU_type_0::IntAlu            781416738     55.54%     55.84% # Type of FU issued
system.cpu0.iq.FU_type_0::IntMult            11834744      0.84%     56.68% # Type of FU issued
system.cpu0.iq.FU_type_0::IntDiv              2100433      0.15%     56.83% # Type of FU issued
system.cpu0.iq.FU_type_0::FloatAdd                  0      0.00%     56.83% # Type of FU issued
system.cpu0.iq.FU_type_0::FloatCmp                  6      0.00%     56.83% # Type of FU issued
system.cpu0.iq.FU_type_0::FloatCvt                 16      0.00%     56.83% # Type of FU issued
system.cpu0.iq.FU_type_0::FloatMult                 0      0.00%     56.83% # Type of FU issued
system.cpu0.iq.FU_type_0::FloatMultAcc              0      0.00%     56.83% # Type of FU issued
system.cpu0.iq.FU_type_0::FloatDiv                  2      0.00%     56.83% # Type of FU issued
system.cpu0.iq.FU_type_0::FloatMisc                 6      0.00%     56.83% # Type of FU issued
system.cpu0.iq.FU_type_0::FloatSqrt                 0      0.00%     56.83% # Type of FU issued
system.cpu0.iq.FU_type_0::SimdAdd                   0      0.00%     56.83% # Type of FU issued
system.cpu0.iq.FU_type_0::SimdAddAcc                0      0.00%     56.83% # Type of FU issued
system.cpu0.iq.FU_type_0::SimdAlu                   0      0.00%     56.83% # Type of FU issued
system.cpu0.iq.FU_type_0::SimdCmp                   0      0.00%     56.83% # Type of FU issued
system.cpu0.iq.FU_type_0::SimdCvt                   0      0.00%     56.83% # Type of FU issued
system.cpu0.iq.FU_type_0::SimdMisc                  0      0.00%     56.83% # Type of FU issued
system.cpu0.iq.FU_type_0::SimdMult                  0      0.00%     56.83% # Type of FU issued
system.cpu0.iq.FU_type_0::SimdMultAcc               0      0.00%     56.83% # Type of FU issued
system.cpu0.iq.FU_type_0::SimdShift                 0      0.00%     56.83% # Type of FU issued
system.cpu0.iq.FU_type_0::SimdShiftAcc              0      0.00%     56.83% # Type of FU issued
system.cpu0.iq.FU_type_0::SimdDiv                   0      0.00%     56.83% # Type of FU issued
system.cpu0.iq.FU_type_0::SimdSqrt                  0      0.00%     56.83% # Type of FU issued
system.cpu0.iq.FU_type_0::SimdFloatAdd              0      0.00%     56.83% # Type of FU issued
system.cpu0.iq.FU_type_0::SimdFloatAlu              0      0.00%     56.83% # Type of FU issued
system.cpu0.iq.FU_type_0::SimdFloatCmp              0      0.00%     56.83% # Type of FU issued
system.cpu0.iq.FU_type_0::SimdFloatCvt              0      0.00%     56.83% # Type of FU issued
system.cpu0.iq.FU_type_0::SimdFloatDiv              0      0.00%     56.83% # Type of FU issued
system.cpu0.iq.FU_type_0::SimdFloatMisc             0      0.00%     56.83% # Type of FU issued
system.cpu0.iq.FU_type_0::SimdFloatMult             0      0.00%     56.83% # Type of FU issued
system.cpu0.iq.FU_type_0::SimdFloatMultAcc            0      0.00%     56.83% # Type of FU issued
system.cpu0.iq.FU_type_0::SimdFloatSqrt             0      0.00%     56.83% # Type of FU issued
system.cpu0.iq.FU_type_0::SimdReduceAdd             0      0.00%     56.83% # Type of FU issued
system.cpu0.iq.FU_type_0::SimdReduceAlu             0      0.00%     56.83% # Type of FU issued
system.cpu0.iq.FU_type_0::SimdReduceCmp             0      0.00%     56.83% # Type of FU issued
system.cpu0.iq.FU_type_0::SimdFloatReduceAdd            0      0.00%     56.83% # Type of FU issued
system.cpu0.iq.FU_type_0::SimdFloatReduceCmp            0      0.00%     56.83% # Type of FU issued
system.cpu0.iq.FU_type_0::SimdAes                   0      0.00%     56.83% # Type of FU issued
system.cpu0.iq.FU_type_0::SimdAesMix                0      0.00%     56.83% # Type of FU issued
system.cpu0.iq.FU_type_0::SimdSha1Hash              0      0.00%     56.83% # Type of FU issued
system.cpu0.iq.FU_type_0::SimdSha1Hash2             0      0.00%     56.83% # Type of FU issued
system.cpu0.iq.FU_type_0::SimdSha256Hash            0      0.00%     56.83% # Type of FU issued
system.cpu0.iq.FU_type_0::SimdSha256Hash2            0      0.00%     56.83% # Type of FU issued
system.cpu0.iq.FU_type_0::SimdShaSigma2             0      0.00%     56.83% # Type of FU issued
system.cpu0.iq.FU_type_0::SimdShaSigma3             0      0.00%     56.83% # Type of FU issued
system.cpu0.iq.FU_type_0::SimdPredAlu               0      0.00%     56.83% # Type of FU issued
system.cpu0.iq.FU_type_0::MemRead           447606127     31.81%     88.64% # Type of FU issued
system.cpu0.iq.FU_type_0::MemWrite          159817705     11.36%    100.00% # Type of FU issued
system.cpu0.iq.FU_type_0::FloatMemRead             12      0.00%    100.00% # Type of FU issued
system.cpu0.iq.FU_type_0::FloatMemWrite            24      0.00%    100.00% # Type of FU issued
system.cpu0.iq.FU_type_0::IprAccess                 0      0.00%    100.00% # Type of FU issued
system.cpu0.iq.FU_type_0::InstPrefetch              0      0.00%    100.00% # Type of FU issued
system.cpu0.iq.FU_type_0::total            1406981441                       # Type of FU issued
system.cpu0.iq.fp_alu_accesses                     69                       # Number of floating point alu accesses
system.cpu0.iq.fp_inst_queue_reads                135                       # Number of floating instruction queue reads
system.cpu0.iq.fp_inst_queue_wakeup_accesses           66                       # Number of floating instruction queue wakeup accesses
system.cpu0.iq.fp_inst_queue_writes                67                       # Number of floating instruction queue writes
system.cpu0.iq.fu_busy_cnt                    3492749                       # FU busy when requested
system.cpu0.iq.fu_busy_rate                  0.002482                       # FU busy rate (busy events/executed inst)
system.cpu0.iq.fu_full::No_OpClass                  0      0.00%      0.00% # attempts to use FU when none available
system.cpu0.iq.fu_full::IntAlu                 759034     21.73%     21.73% # attempts to use FU when none available
system.cpu0.iq.fu_full::IntMult                     0      0.00%     21.73% # attempts to use FU when none available
system.cpu0.iq.fu_full::IntDiv                      0      0.00%     21.73% # attempts to use FU when none available
system.cpu0.iq.fu_full::FloatAdd                    0      0.00%     21.73% # attempts to use FU when none available
system.cpu0.iq.fu_full::FloatCmp                    0      0.00%     21.73% # attempts to use FU when none available
system.cpu0.iq.fu_full::FloatCvt                    0      0.00%     21.73% # attempts to use FU when none available
system.cpu0.iq.fu_full::FloatMult                   0      0.00%     21.73% # attempts to use FU when none available
system.cpu0.iq.fu_full::FloatMultAcc                0      0.00%     21.73% # attempts to use FU when none available
system.cpu0.iq.fu_full::FloatDiv                    0      0.00%     21.73% # attempts to use FU when none available
system.cpu0.iq.fu_full::FloatMisc                   0      0.00%     21.73% # attempts to use FU when none available
system.cpu0.iq.fu_full::FloatSqrt                   0      0.00%     21.73% # attempts to use FU when none available
system.cpu0.iq.fu_full::SimdAdd                     0      0.00%     21.73% # attempts to use FU when none available
system.cpu0.iq.fu_full::SimdAddAcc                  0      0.00%     21.73% # attempts to use FU when none available
system.cpu0.iq.fu_full::SimdAlu                     0      0.00%     21.73% # attempts to use FU when none available
system.cpu0.iq.fu_full::SimdCmp                     0      0.00%     21.73% # attempts to use FU when none available
system.cpu0.iq.fu_full::SimdCvt                     0      0.00%     21.73% # attempts to use FU when none available
system.cpu0.iq.fu_full::SimdMisc                    0      0.00%     21.73% # attempts to use FU when none available
system.cpu0.iq.fu_full::SimdMult                    0      0.00%     21.73% # attempts to use FU when none available
system.cpu0.iq.fu_full::SimdMultAcc                 0      0.00%     21.73% # attempts to use FU when none available
system.cpu0.iq.fu_full::SimdShift                   0      0.00%     21.73% # attempts to use FU when none available
system.cpu0.iq.fu_full::SimdShiftAcc                0      0.00%     21.73% # attempts to use FU when none available
system.cpu0.iq.fu_full::SimdDiv                     0      0.00%     21.73% # attempts to use FU when none available
system.cpu0.iq.fu_full::SimdSqrt                    0      0.00%     21.73% # attempts to use FU when none available
system.cpu0.iq.fu_full::SimdFloatAdd                0      0.00%     21.73% # attempts to use FU when none available
system.cpu0.iq.fu_full::SimdFloatAlu                0      0.00%     21.73% # attempts to use FU when none available
system.cpu0.iq.fu_full::SimdFloatCmp                0      0.00%     21.73% # attempts to use FU when none available
system.cpu0.iq.fu_full::SimdFloatCvt                0      0.00%     21.73% # attempts to use FU when none available
system.cpu0.iq.fu_full::SimdFloatDiv                0      0.00%     21.73% # attempts to use FU when none available
system.cpu0.iq.fu_full::SimdFloatMisc               0      0.00%     21.73% # attempts to use FU when none available
system.cpu0.iq.fu_full::SimdFloatMult               0      0.00%     21.73% # attempts to use FU when none available
system.cpu0.iq.fu_full::SimdFloatMultAcc            0      0.00%     21.73% # attempts to use FU when none available
system.cpu0.iq.fu_full::SimdFloatSqrt               0      0.00%     21.73% # attempts to use FU when none available
system.cpu0.iq.fu_full::SimdReduceAdd               0      0.00%     21.73% # attempts to use FU when none available
system.cpu0.iq.fu_full::SimdReduceAlu               0      0.00%     21.73% # attempts to use FU when none available
system.cpu0.iq.fu_full::SimdReduceCmp               0      0.00%     21.73% # attempts to use FU when none available
system.cpu0.iq.fu_full::SimdFloatReduceAdd            0      0.00%     21.73% # attempts to use FU when none available
system.cpu0.iq.fu_full::SimdFloatReduceCmp            0      0.00%     21.73% # attempts to use FU when none available
system.cpu0.iq.fu_full::SimdAes                     0      0.00%     21.73% # attempts to use FU when none available
system.cpu0.iq.fu_full::SimdAesMix                  0      0.00%     21.73% # attempts to use FU when none available
system.cpu0.iq.fu_full::SimdSha1Hash                0      0.00%     21.73% # attempts to use FU when none available
system.cpu0.iq.fu_full::SimdSha1Hash2               0      0.00%     21.73% # attempts to use FU when none available
system.cpu0.iq.fu_full::SimdSha256Hash              0      0.00%     21.73% # attempts to use FU when none available
system.cpu0.iq.fu_full::SimdSha256Hash2             0      0.00%     21.73% # attempts to use FU when none available
system.cpu0.iq.fu_full::SimdShaSigma2               0      0.00%     21.73% # attempts to use FU when none available
system.cpu0.iq.fu_full::SimdShaSigma3               0      0.00%     21.73% # attempts to use FU when none available
system.cpu0.iq.fu_full::SimdPredAlu                 0      0.00%     21.73% # attempts to use FU when none available
system.cpu0.iq.fu_full::MemRead               2169597     62.12%     83.85% # attempts to use FU when none available
system.cpu0.iq.fu_full::MemWrite               564115     16.15%    100.00% # attempts to use FU when none available
system.cpu0.iq.fu_full::FloatMemRead                0      0.00%    100.00% # attempts to use FU when none available
system.cpu0.iq.fu_full::FloatMemWrite               3      0.00%    100.00% # attempts to use FU when none available
system.cpu0.iq.fu_full::IprAccess                   0      0.00%    100.00% # attempts to use FU when none available
system.cpu0.iq.fu_full::InstPrefetch                0      0.00%    100.00% # attempts to use FU when none available
system.cpu0.iq.int_alu_accesses            1406268493                       # Number of integer alu accesses
system.cpu0.iq.int_inst_queue_reads        5139370076                       # Number of integer instruction queue reads
system.cpu0.iq.int_inst_queue_wakeup_accesses   1383648129                       # Number of integer instruction queue wakeup accesses
system.cpu0.iq.int_inst_queue_writes       1507229035                       # Number of integer instruction queue writes
system.cpu0.iq.iqInstsAdded                1405579396                       # Number of instructions added to the IQ (excludes non-spec)
system.cpu0.iq.iqInstsIssued               1406981441                       # Number of instructions issued
system.cpu0.iq.iqNonSpecInstsAdded            7362724                       # Number of non-speculative instructions added to the IQ
system.cpu0.iq.iqSquashedInstsExamined       94276880                       # Number of squashed instructions iterated over during squash; mainly for profiling
system.cpu0.iq.iqSquashedInstsIssued           280148                       # Number of squashed instructions issued
system.cpu0.iq.iqSquashedNonSpecRemoved       1052939                       # Number of squashed non-spec instructions that were removed
system.cpu0.iq.iqSquashedOperandsExamined     24168000                       # Number of squashed operands that are examined and possibly removed from graph
system.cpu0.iq.issued_per_cycle::samples   2321634433                       # Number of insts issued each cycle
system.cpu0.iq.issued_per_cycle::mean        0.606031                       # Number of insts issued each cycle
system.cpu0.iq.issued_per_cycle::stdev       0.826330                       # Number of insts issued each cycle
system.cpu0.iq.issued_per_cycle::underflows            0      0.00%      0.00% # Number of insts issued each cycle
system.cpu0.iq.issued_per_cycle::0         1302024398     56.08%     56.08% # Number of insts issued each cycle
system.cpu0.iq.issued_per_cycle::1          715350316     30.81%     86.89% # Number of insts issued each cycle
system.cpu0.iq.issued_per_cycle::2          248588125     10.71%     97.60% # Number of insts issued each cycle
system.cpu0.iq.issued_per_cycle::3           39411730      1.70%     99.30% # Number of insts issued each cycle
system.cpu0.iq.issued_per_cycle::4           10184663      0.44%     99.74% # Number of insts issued each cycle
system.cpu0.iq.issued_per_cycle::5            2006890      0.09%     99.82% # Number of insts issued each cycle
system.cpu0.iq.issued_per_cycle::6            3263243      0.14%     99.97% # Number of insts issued each cycle
system.cpu0.iq.issued_per_cycle::7             573419      0.02%     99.99% # Number of insts issued each cycle
system.cpu0.iq.issued_per_cycle::8             231649      0.01%    100.00% # Number of insts issued each cycle
system.cpu0.iq.issued_per_cycle::overflows            0      0.00%    100.00% # Number of insts issued each cycle
system.cpu0.iq.issued_per_cycle::min_value            0                       # Number of insts issued each cycle
system.cpu0.iq.issued_per_cycle::max_value            8                       # Number of insts issued each cycle
system.cpu0.iq.issued_per_cycle::total     2321634433                       # Number of insts issued each cycle
system.cpu0.iq.rate                          0.572259                       # Inst issue rate
system.cpu0.iq.vec_alu_accesses                     0                       # Number of vector alu accesses
system.cpu0.iq.vec_inst_queue_reads                 0                       # Number of vector instruction queue reads
system.cpu0.iq.vec_inst_queue_wakeup_accesses            0                       # Number of vector instruction queue wakeup accesses
system.cpu0.iq.vec_inst_queue_writes                0                       # Number of vector instruction queue writes
system.cpu0.itb.accesses                            0                       # DTB accesses
system.cpu0.itb.hits                                0                       # DTB hits
system.cpu0.itb.misses                              0                       # DTB misses
system.cpu0.itb.read_accesses                       0                       # DTB read accesses
system.cpu0.itb.read_hits                           0                       # DTB read hits
system.cpu0.itb.read_misses                         0                       # DTB read misses
system.cpu0.itb.write_accesses                      0                       # DTB write accesses
system.cpu0.itb.write_hits                          0                       # DTB write hits
system.cpu0.itb.write_misses                        0                       # DTB write misses
system.cpu0.memDep0.conflictingLoads         19215177                       # Number of conflicting loads.
system.cpu0.memDep0.conflictingStores         4229770                       # Number of conflicting stores.
system.cpu0.memDep0.insertedLoads           442541956                       # Number of loads inserted to the mem dependence unit.
system.cpu0.memDep0.insertedStores          163115746                       # Number of stores inserted to the mem dependence unit.
system.cpu0.misc_regfile_reads                   1912                       # number of misc regfile reads
system.cpu0.misc_regfile_writes                    30                       # number of misc regfile writes
system.cpu0.numCycles                      2458645796                       # number of cpu cycles simulated
system.cpu0.numWorkItemsCompleted                   0                       # number of work items this cpu completed
system.cpu0.numWorkItemsStarted                     0                       # number of work items this cpu started
system.cpu0.quiesceCycles                     9661382                       # Total number of cycles that CPU has spent quiesced or waiting for an interrupt
system.cpu0.rename.BlockCycles              401978628                       # Number of cycles rename is blocking
system.cpu0.rename.CommittedMaps            845204728                       # Number of HB maps that are committed
system.cpu0.rename.IQFullEvents              14216071                       # Number of times rename has blocked due to IQ full
system.cpu0.rename.IdleCycles               849223960                       # Number of cycles rename is idle
system.cpu0.rename.LQFullEvents              14475048                       # Number of times rename has blocked due to LQ full
system.cpu0.rename.ROBFullEvents                12341                       # Number of times rename has blocked due to ROB full
system.cpu0.rename.RenameLookups           1750350645                       # Number of register rename lookups that rename has made
system.cpu0.rename.RenamedInsts            1426371293                       # Number of instructions processed by rename
system.cpu0.rename.RenamedOperands          925069231                       # Number of destination operands rename has renamed
system.cpu0.rename.RunCycles                991161715                       # Number of cycles rename is running
system.cpu0.rename.SQFullEvents              39975627                       # Number of times rename has blocked due to SQ full
system.cpu0.rename.SquashCycles               8749145                       # Number of cycles rename is squashing
system.cpu0.rename.UnblockCycles             70140822                       # Number of cycles rename is unblocking
system.cpu0.rename.UndoneMaps                79864498                       # Number of HB maps that are undone due to squashing
system.cpu0.rename.fp_rename_lookups               57                       # Number of floating rename lookups
system.cpu0.rename.int_rename_lookups      1750350588                       # Number of integer rename lookups
system.cpu0.rename.serializeStallCycles        380163                       # count of cycles rename stalled for serializing inst
system.cpu0.rename.serializingInsts              5884                       # count of serializing insts renamed
system.cpu0.rename.skidInsts                 33312371                       # count of insts added to the skid buffer
system.cpu0.rename.tempSerializingInsts          5882                       # count of temporary serializing insts renamed
system.cpu0.rob.rob_reads                  3668340251                       # The number of ROB reads
system.cpu0.rob.rob_writes                 2843765360                       # The number of ROB writes
system.cpu0.timesIdled                       20618736                       # Number of times that the entire CPU went into an idle state and unscheduled itself
system.cpu0.workload.numSyscalls                 1868                       # Number of system calls
system.cpu1.branchPred.BTBCorrect                   0                       # Number of correct BTB predictions (this stat may not work properly.
system.cpu1.branchPred.BTBHitPct            90.482129                       # BTB Hit Percentage
system.cpu1.branchPred.BTBHits               21357570                       # Number of BTB hits
system.cpu1.branchPred.BTBLookups            23604186                       # Number of BTB lookups
system.cpu1.branchPred.RASInCorrect                 0                       # Number of incorrect RAS predictions.
system.cpu1.branchPred.condIncorrect          2836151                       # Number of conditional branches incorrect
system.cpu1.branchPred.condPredicted         31567254                       # Number of conditional branches predicted
system.cpu1.branchPred.indirectHits           1085854                       # Number of indirect target hits.
system.cpu1.branchPred.indirectLookups        1109206                       # Number of indirect predictor lookups.
system.cpu1.branchPred.indirectMisses           23352                       # Number of indirect misses.
system.cpu1.branchPred.lookups               36321240                       # Number of BP lookups
system.cpu1.branchPred.usedRAS                      0                       # Number of times the RAS was used to get a target.
system.cpu1.branchPredindirectMispredicted        48387                       # Number of mispredicted indirect branches.
system.cpu1.commit.amos                       2100002                       # Number of atomic instructions committed
system.cpu1.commit.branchMispredicts          2009332                       # The number of times a branch was mispredicted
system.cpu1.commit.branches                  28116301                       # Number of branches committed
system.cpu1.commit.bw_lim_events              4448910                       # number cycles where commit BW limit reached
system.cpu1.commit.commitNonSpecStalls        6300697                       # The number of times commit has been forced to stall to communicate backwards
system.cpu1.commit.commitSquashedInsts       19095464                       # The number of squashed insts skipped by commit
system.cpu1.commit.committedInsts           120050129                       # Number of instructions committed
system.cpu1.commit.committedOps             122150313                       # Number of ops (including micro ops) committed
system.cpu1.commit.committed_per_cycle::samples    490166847                       # Number of insts commited each cycle
system.cpu1.commit.committed_per_cycle::mean     0.249201                       # Number of insts commited each cycle
system.cpu1.commit.committed_per_cycle::stdev     1.028082                       # Number of insts commited each cycle
system.cpu1.commit.committed_per_cycle::underflows            0      0.00%      0.00% # Number of insts commited each cycle
system.cpu1.commit.committed_per_cycle::0    442921369     90.36%     90.36% # Number of insts commited each cycle
system.cpu1.commit.committed_per_cycle::1     22813676      4.65%     95.02% # Number of insts commited each cycle
system.cpu1.commit.committed_per_cycle::2      7740740      1.58%     96.59% # Number of insts commited each cycle
system.cpu1.commit.committed_per_cycle::3      6984364      1.42%     98.02% # Number of insts commited each cycle
system.cpu1.commit.committed_per_cycle::4      1882556      0.38%     98.40% # Number of insts commited each cycle
system.cpu1.commit.committed_per_cycle::5       824251      0.17%     98.57% # Number of insts commited each cycle
system.cpu1.commit.committed_per_cycle::6      2197561      0.45%     99.02% # Number of insts commited each cycle
system.cpu1.commit.committed_per_cycle::7       353420      0.07%     99.09% # Number of insts commited each cycle
system.cpu1.commit.committed_per_cycle::8      4448910      0.91%    100.00% # Number of insts commited each cycle
system.cpu1.commit.committed_per_cycle::overflows            0      0.00%    100.00% # Number of insts commited each cycle
system.cpu1.commit.committed_per_cycle::min_value            0                       # Number of insts commited each cycle
system.cpu1.commit.committed_per_cycle::max_value            8                       # Number of insts commited each cycle
system.cpu1.commit.committed_per_cycle::total    490166847                       # Number of insts commited each cycle
system.cpu1.commit.fp_insts                        12                       # Number of committed floating point instructions.
system.cpu1.commit.function_calls             1797579                       # Number of function calls committed.
system.cpu1.commit.int_insts                116587714                       # Number of committed integer instructions.
system.cpu1.commit.loads                     30173524                       # Number of loads committed
system.cpu1.commit.membars                    4200130                       # Number of memory barriers committed
system.cpu1.commit.op_class_0::No_OpClass      4200130      3.44%      3.44% # Class of committed instruction
system.cpu1.commit.op_class_0::IntAlu        76657543     62.76%     66.20% # Class of committed instruction
system.cpu1.commit.op_class_0::IntMult             44      0.00%     66.20% # Class of committed instruction
system.cpu1.commit.op_class_0::IntDiv              88      0.00%     66.20% # Class of committed instruction
system.cpu1.commit.op_class_0::FloatAdd             0      0.00%     66.20% # Class of committed instruction
system.cpu1.commit.op_class_0::FloatCmp             0      0.00%     66.20% # Class of committed instruction
system.cpu1.commit.op_class_0::FloatCvt             0      0.00%     66.20% # Class of committed instruction
system.cpu1.commit.op_class_0::FloatMult            0      0.00%     66.20% # Class of committed instruction
system.cpu1.commit.op_class_0::FloatMultAcc            0      0.00%     66.20% # Class of committed instruction
system.cpu1.commit.op_class_0::FloatDiv             0      0.00%     66.20% # Class of committed instruction
system.cpu1.commit.op_class_0::FloatMisc            0      0.00%     66.20% # Class of committed instruction
system.cpu1.commit.op_class_0::FloatSqrt            0      0.00%     66.20% # Class of committed instruction
system.cpu1.commit.op_class_0::SimdAdd              0      0.00%     66.20% # Class of committed instruction
system.cpu1.commit.op_class_0::SimdAddAcc            0      0.00%     66.20% # Class of committed instruction
system.cpu1.commit.op_class_0::SimdAlu              0      0.00%     66.20% # Class of committed instruction
system.cpu1.commit.op_class_0::SimdCmp              0      0.00%     66.20% # Class of committed instruction
system.cpu1.commit.op_class_0::SimdCvt              0      0.00%     66.20% # Class of committed instruction
system.cpu1.commit.op_class_0::SimdMisc             0      0.00%     66.20% # Class of committed instruction
system.cpu1.commit.op_class_0::SimdMult             0      0.00%     66.20% # Class of committed instruction
system.cpu1.commit.op_class_0::SimdMultAcc            0      0.00%     66.20% # Class of committed instruction
system.cpu1.commit.op_class_0::SimdShift            0      0.00%     66.20% # Class of committed instruction
system.cpu1.commit.op_class_0::SimdShiftAcc            0      0.00%     66.20% # Class of committed instruction
system.cpu1.commit.op_class_0::SimdDiv              0      0.00%     66.20% # Class of committed instruction
system.cpu1.commit.op_class_0::SimdSqrt             0      0.00%     66.20% # Class of committed instruction
system.cpu1.commit.op_class_0::SimdFloatAdd            0      0.00%     66.20% # Class of committed instruction
system.cpu1.commit.op_class_0::SimdFloatAlu            0      0.00%     66.20% # Class of committed instruction
system.cpu1.commit.op_class_0::SimdFloatCmp            0      0.00%     66.20% # Class of committed instruction
system.cpu1.commit.op_class_0::SimdFloatCvt            0      0.00%     66.20% # Class of committed instruction
system.cpu1.commit.op_class_0::SimdFloatDiv            0      0.00%     66.20% # Class of committed instruction
system.cpu1.commit.op_class_0::SimdFloatMisc            0      0.00%     66.20% # Class of committed instruction
system.cpu1.commit.op_class_0::SimdFloatMult            0      0.00%     66.20% # Class of committed instruction
system.cpu1.commit.op_class_0::SimdFloatMultAcc            0      0.00%     66.20% # Class of committed instruction
system.cpu1.commit.op_class_0::SimdFloatSqrt            0      0.00%     66.20% # Class of committed instruction
system.cpu1.commit.op_class_0::SimdReduceAdd            0      0.00%     66.20% # Class of committed instruction
system.cpu1.commit.op_class_0::SimdReduceAlu            0      0.00%     66.20% # Class of committed instruction
system.cpu1.commit.op_class_0::SimdReduceCmp            0      0.00%     66.20% # Class of committed instruction
system.cpu1.commit.op_class_0::SimdFloatReduceAdd            0      0.00%     66.20% # Class of committed instruction
system.cpu1.commit.op_class_0::SimdFloatReduceCmp            0      0.00%     66.20% # Class of committed instruction
system.cpu1.commit.op_class_0::SimdAes              0      0.00%     66.20% # Class of committed instruction
system.cpu1.commit.op_class_0::SimdAesMix            0      0.00%     66.20% # Class of committed instruction
system.cpu1.commit.op_class_0::SimdSha1Hash            0      0.00%     66.20% # Class of committed instruction
system.cpu1.commit.op_class_0::SimdSha1Hash2            0      0.00%     66.20% # Class of committed instruction
system.cpu1.commit.op_class_0::SimdSha256Hash            0      0.00%     66.20% # Class of committed instruction
system.cpu1.commit.op_class_0::SimdSha256Hash2            0      0.00%     66.20% # Class of committed instruction
system.cpu1.commit.op_class_0::SimdShaSigma2            0      0.00%     66.20% # Class of committed instruction
system.cpu1.commit.op_class_0::SimdShaSigma3            0      0.00%     66.20% # Class of committed instruction
system.cpu1.commit.op_class_0::SimdPredAlu            0      0.00%     66.20% # Class of committed instruction
system.cpu1.commit.op_class_0::MemRead       32273526     26.42%     92.62% # Class of committed instruction
system.cpu1.commit.op_class_0::MemWrite       9018970      7.38%    100.00% # Class of committed instruction
system.cpu1.commit.op_class_0::FloatMemRead            0      0.00%    100.00% # Class of committed instruction
system.cpu1.commit.op_class_0::FloatMemWrite           12      0.00%    100.00% # Class of committed instruction
system.cpu1.commit.op_class_0::IprAccess            0      0.00%    100.00% # Class of committed instruction
system.cpu1.commit.op_class_0::InstPrefetch            0      0.00%    100.00% # Class of committed instruction
system.cpu1.commit.op_class_0::total        122150313                       # Class of committed instruction
system.cpu1.commit.refs                      41292508                       # Number of memory references committed
system.cpu1.commit.swp_count                        0                       # Number of s/w prefetches committed
system.cpu1.commit.vec_insts                        0                       # Number of committed Vector instructions.
system.cpu1.committedInsts                  120050129                       # Number of Instructions Simulated
system.cpu1.committedOps                    122150313                       # Number of Ops (including micro ops) Simulated
system.cpu1.cpi                              4.123517                       # CPI: Cycles Per Instruction
system.cpu1.cpi_total                        4.123517                       # CPI: Total CPI of All Threads
system.cpu1.decode.BlockedCycles            394850882                       # Number of cycles decode is blocked
system.cpu1.decode.BranchMispred               873715                       # Number of times decode detected a branch misprediction
system.cpu1.decode.BranchResolved            20273555                       # Number of times decode resolved a branch
system.cpu1.decode.DecodedInsts             147934359                       # Number of instructions handled by decode
system.cpu1.decode.IdleCycles                26531092                       # Number of cycles decode is idle
system.cpu1.decode.RunCycles                 65192280                       # Number of cycles decode is running
system.cpu1.decode.SquashCycles               2011715                       # Number of cycles decode is squashing
system.cpu1.decode.SquashedInsts              2057762                       # Number of squashed instructions handled by decode
system.cpu1.decode.UnblockCycles              5318589                       # Number of cycles decode is unblocking
system.cpu1.dtb.accesses                            0                       # DTB accesses
system.cpu1.dtb.hits                                0                       # DTB hits
system.cpu1.dtb.misses                              0                       # DTB misses
system.cpu1.dtb.read_accesses                       0                       # DTB read accesses
system.cpu1.dtb.read_hits                           0                       # DTB read hits
system.cpu1.dtb.read_misses                         0                       # DTB read misses
system.cpu1.dtb.write_accesses                      0                       # DTB write accesses
system.cpu1.dtb.write_hits                          0                       # DTB write hits
system.cpu1.dtb.write_misses                        0                       # DTB write misses
system.cpu1.fetch.Branches                   36321240                       # Number of branches that fetch encountered
system.cpu1.fetch.CacheLines                 23519527                       # Number of cache lines fetched
system.cpu1.fetch.Cycles                    464934191                       # Number of cycles fetch has run and was not squashing or blocked
system.cpu1.fetch.IcacheSquashes               298460                       # Number of outstanding Icache misses that were squashed
system.cpu1.fetch.IcacheWaitRetryStallCycles           18                       # Number of stall cycles due to full MSHR
system.cpu1.fetch.Insts                     153831775                       # Number of instructions fetch has processed
system.cpu1.fetch.MiscStallCycles                   2                       # Number of cycles fetch has spent waiting on interrupts, or bad addresses, or out of MSHRs
system.cpu1.fetch.SquashCycles                5677068                       # Number of cycles fetch has spent squashing
system.cpu1.fetch.branchRate                 0.073372                       # Number of branch fetches per cycle
system.cpu1.fetch.icacheStallCycles          26131813                       # Number of cycles fetch is stalled on an Icache miss
system.cpu1.fetch.predictedBranches          22443424                       # Number of branches that fetch has predicted taken
system.cpu1.fetch.rate                       0.310753                       # Number of inst fetches per cycle
system.cpu1.fetch.rateDist::samples         493904558                       # Number of instructions fetched each cycle (Total)
system.cpu1.fetch.rateDist::mean             0.315713                       # Number of instructions fetched each cycle (Total)
system.cpu1.fetch.rateDist::stdev            0.749000                       # Number of instructions fetched each cycle (Total)
system.cpu1.fetch.rateDist::underflows              0      0.00%      0.00% # Number of instructions fetched each cycle (Total)
system.cpu1.fetch.rateDist::0               394904685     79.96%     79.96% # Number of instructions fetched each cycle (Total)
system.cpu1.fetch.rateDist::1                63397314     12.84%     92.79% # Number of instructions fetched each cycle (Total)
system.cpu1.fetch.rateDist::2                19291257      3.91%     96.70% # Number of instructions fetched each cycle (Total)
system.cpu1.fetch.rateDist::3                12720465      2.58%     99.27% # Number of instructions fetched each cycle (Total)
system.cpu1.fetch.rateDist::4                 2642940      0.54%     99.81% # Number of instructions fetched each cycle (Total)
system.cpu1.fetch.rateDist::5                  468938      0.09%     99.90% # Number of instructions fetched each cycle (Total)
system.cpu1.fetch.rateDist::6                  478247      0.10%    100.00% # Number of instructions fetched each cycle (Total)
system.cpu1.fetch.rateDist::7                     570      0.00%    100.00% # Number of instructions fetched each cycle (Total)
system.cpu1.fetch.rateDist::8                     142      0.00%    100.00% # Number of instructions fetched each cycle (Total)
system.cpu1.fetch.rateDist::overflows               0      0.00%    100.00% # Number of instructions fetched each cycle (Total)
system.cpu1.fetch.rateDist::min_value               0                       # Number of instructions fetched each cycle (Total)
system.cpu1.fetch.rateDist::max_value               8                       # Number of instructions fetched each cycle (Total)
system.cpu1.fetch.rateDist::total           493904558                       # Number of instructions fetched each cycle (Total)
system.cpu1.fp_regfile_reads                       12                       # number of floating regfile reads
system.cpu1.idleCycles                        1124199                       # Total number of cycles that the CPU has spent unscheduled due to idling
system.cpu1.iew.branchMispredicts             2136860                       # Number of branch mispredicts detected at execute
system.cpu1.iew.exec_branches                31006105                       # Number of branches executed
system.cpu1.iew.exec_nop                            0                       # number of nop insts executed
system.cpu1.iew.exec_rate                    0.274320                       # Inst execution rate
system.cpu1.iew.exec_refs                    46395490                       # number of memory reference insts executed
system.cpu1.iew.exec_stores                  11524417                       # Number of stores executed
system.cpu1.iew.exec_swp                            0                       # number of swp insts executed
system.cpu1.iew.iewBlockCycles              321896296                       # Number of cycles IEW is blocking
system.cpu1.iew.iewDispLoadInsts             35113271                       # Number of dispatched load instructions
system.cpu1.iew.iewDispNonSpecInsts           2100645                       # Number of dispatched non-speculative instructions
system.cpu1.iew.iewDispSquashedInsts          1966453                       # Number of squashed instructions skipped by dispatch
system.cpu1.iew.iewDispStoreInsts            11930285                       # Number of dispatched store instructions
system.cpu1.iew.iewDispatchedInsts          141195718                       # Number of instructions dispatched to IQ
system.cpu1.iew.iewExecLoadInsts             34871073                       # Number of load instructions executed
system.cpu1.iew.iewExecSquashedInsts          1868604                       # Number of squashed instructions skipped in execute
system.cpu1.iew.iewExecutedInsts            135796170                       # Number of executed instructions
system.cpu1.iew.iewIQFullEvents               1793500                       # Number of times the IQ has become full, causing a stall
system.cpu1.iew.iewIdleCycles                       0                       # Number of cycles IEW is idle
system.cpu1.iew.iewLSQFullEvents              5843146                       # Number of times the LSQ has become full, causing a stall
system.cpu1.iew.iewSquashCycles               2011715                       # Number of cycles IEW is squashing
system.cpu1.iew.iewUnblockCycles             10318468                       # Number of cycles IEW is unblocking
system.cpu1.iew.lsq.thread0.blockedLoads            0                       # Number of blocked loads due to partial load-store forwarding
system.cpu1.iew.lsq.thread0.cacheBlocked       221254                       # Number of times an access to memory failed due to the cache being blocked
system.cpu1.iew.lsq.thread0.forwLoads         1119081                       # Number of loads that had data forwarded from stores
system.cpu1.iew.lsq.thread0.ignoredResponses        30927                       # Number of memory responses ignored because the instruction is squashed
system.cpu1.iew.lsq.thread0.invAddrLoads            0                       # Number of loads ignored due to an invalid address
system.cpu1.iew.lsq.thread0.invAddrSwpfs            0                       # Number of software prefetches ignored due to an invalid address
system.cpu1.iew.lsq.thread0.memOrderViolation         3145                       # Number of memory ordering violations
system.cpu1.iew.lsq.thread0.rescheduledLoads        18436                       # Number of loads that were rescheduled
system.cpu1.iew.lsq.thread0.squashedLoads      4939747                       # Number of loads squashed
system.cpu1.iew.lsq.thread0.squashedStores       811301                       # Number of stores squashed
system.cpu1.iew.memOrderViolationEvents          3145                       # Number of memory order violations
system.cpu1.iew.predictedNotTakenIncorrect       550463                       # Number of branches that were predicted not taken incorrectly
system.cpu1.iew.predictedTakenIncorrect       1586397                       # Number of branches that were predicted taken incorrectly
system.cpu1.iew.wb_consumers                 81334988                       # num instructions consuming a value
system.cpu1.iew.wb_count                    133903783                       # cumulative count of insts written-back
system.cpu1.iew.wb_fanout                    0.831058                       # average fanout of values written-back
system.cpu1.iew.wb_producers                 67594089                       # num instructions producing a value
system.cpu1.iew.wb_rate                      0.270497                       # insts written-back per cycle
system.cpu1.iew.wb_sent                     133989688                       # cumulative count of insts sent to commit
system.cpu1.int_regfile_reads               171939505                       # number of integer regfile reads
system.cpu1.int_regfile_writes               90395574                       # number of integer regfile writes
system.cpu1.ipc                              0.242511                       # IPC: Instructions Per Cycle
system.cpu1.ipc_total                        0.242511                       # IPC: Total IPC of All Threads
system.cpu1.iq.FU_type_0::No_OpClass          4200240      3.05%      3.05% # Type of FU issued
system.cpu1.iq.FU_type_0::IntAlu             86522495     62.85%     65.90% # Type of FU issued
system.cpu1.iq.FU_type_0::IntMult                  48      0.00%     65.90% # Type of FU issued
system.cpu1.iq.FU_type_0::IntDiv                   88      0.00%     65.90% # Type of FU issued
system.cpu1.iq.FU_type_0::FloatAdd                  0      0.00%     65.90% # Type of FU issued
system.cpu1.iq.FU_type_0::FloatCmp                  0      0.00%     65.90% # Type of FU issued
system.cpu1.iq.FU_type_0::FloatCvt                  0      0.00%     65.90% # Type of FU issued
system.cpu1.iq.FU_type_0::FloatMult                 0      0.00%     65.90% # Type of FU issued
system.cpu1.iq.FU_type_0::FloatMultAcc              0      0.00%     65.90% # Type of FU issued
system.cpu1.iq.FU_type_0::FloatDiv                  0      0.00%     65.90% # Type of FU issued
system.cpu1.iq.FU_type_0::FloatMisc                 0      0.00%     65.90% # Type of FU issued
system.cpu1.iq.FU_type_0::FloatSqrt                 0      0.00%     65.90% # Type of FU issued
system.cpu1.iq.FU_type_0::SimdAdd                   0      0.00%     65.90% # Type of FU issued
system.cpu1.iq.FU_type_0::SimdAddAcc                0      0.00%     65.90% # Type of FU issued
system.cpu1.iq.FU_type_0::SimdAlu                   0      0.00%     65.90% # Type of FU issued
system.cpu1.iq.FU_type_0::SimdCmp                   0      0.00%     65.90% # Type of FU issued
system.cpu1.iq.FU_type_0::SimdCvt                   0      0.00%     65.90% # Type of FU issued
system.cpu1.iq.FU_type_0::SimdMisc                  0      0.00%     65.90% # Type of FU issued
system.cpu1.iq.FU_type_0::SimdMult                  0      0.00%     65.90% # Type of FU issued
system.cpu1.iq.FU_type_0::SimdMultAcc               0      0.00%     65.90% # Type of FU issued
system.cpu1.iq.FU_type_0::SimdShift                 0      0.00%     65.90% # Type of FU issued
system.cpu1.iq.FU_type_0::SimdShiftAcc              0      0.00%     65.90% # Type of FU issued
system.cpu1.iq.FU_type_0::SimdDiv                   0      0.00%     65.90% # Type of FU issued
system.cpu1.iq.FU_type_0::SimdSqrt                  0      0.00%     65.90% # Type of FU issued
system.cpu1.iq.FU_type_0::SimdFloatAdd              0      0.00%     65.90% # Type of FU issued
system.cpu1.iq.FU_type_0::SimdFloatAlu              0      0.00%     65.90% # Type of FU issued
system.cpu1.iq.FU_type_0::SimdFloatCmp              0      0.00%     65.90% # Type of FU issued
system.cpu1.iq.FU_type_0::SimdFloatCvt              0      0.00%     65.90% # Type of FU issued
system.cpu1.iq.FU_type_0::SimdFloatDiv              0      0.00%     65.90% # Type of FU issued
system.cpu1.iq.FU_type_0::SimdFloatMisc             0      0.00%     65.90% # Type of FU issued
system.cpu1.iq.FU_type_0::SimdFloatMult             0      0.00%     65.90% # Type of FU issued
system.cpu1.iq.FU_type_0::SimdFloatMultAcc            0      0.00%     65.90% # Type of FU issued
system.cpu1.iq.FU_type_0::SimdFloatSqrt             0      0.00%     65.90% # Type of FU issued
system.cpu1.iq.FU_type_0::SimdReduceAdd             0      0.00%     65.90% # Type of FU issued
system.cpu1.iq.FU_type_0::SimdReduceAlu             0      0.00%     65.90% # Type of FU issued
system.cpu1.iq.FU_type_0::SimdReduceCmp             0      0.00%     65.90% # Type of FU issued
system.cpu1.iq.FU_type_0::SimdFloatReduceAdd            0      0.00%     65.90% # Type of FU issued
system.cpu1.iq.FU_type_0::SimdFloatReduceCmp            0      0.00%     65.90% # Type of FU issued
system.cpu1.iq.FU_type_0::SimdAes                   0      0.00%     65.90% # Type of FU issued
system.cpu1.iq.FU_type_0::SimdAesMix                0      0.00%     65.90% # Type of FU issued
system.cpu1.iq.FU_type_0::SimdSha1Hash              0      0.00%     65.90% # Type of FU issued
system.cpu1.iq.FU_type_0::SimdSha1Hash2             0      0.00%     65.90% # Type of FU issued
system.cpu1.iq.FU_type_0::SimdSha256Hash            0      0.00%     65.90% # Type of FU issued
system.cpu1.iq.FU_type_0::SimdSha256Hash2            0      0.00%     65.90% # Type of FU issued
system.cpu1.iq.FU_type_0::SimdShaSigma2             0      0.00%     65.90% # Type of FU issued
system.cpu1.iq.FU_type_0::SimdShaSigma3             0      0.00%     65.90% # Type of FU issued
system.cpu1.iq.FU_type_0::SimdPredAlu               0      0.00%     65.90% # Type of FU issued
system.cpu1.iq.FU_type_0::MemRead            37439173     27.20%     93.10% # Type of FU issued
system.cpu1.iq.FU_type_0::MemWrite            9502718      6.90%    100.00% # Type of FU issued
system.cpu1.iq.FU_type_0::FloatMemRead              0      0.00%    100.00% # Type of FU issued
system.cpu1.iq.FU_type_0::FloatMemWrite            12      0.00%    100.00% # Type of FU issued
system.cpu1.iq.FU_type_0::IprAccess                 0      0.00%    100.00% # Type of FU issued
system.cpu1.iq.FU_type_0::InstPrefetch              0      0.00%    100.00% # Type of FU issued
system.cpu1.iq.FU_type_0::total             137664774                       # Type of FU issued
system.cpu1.iq.fp_alu_accesses                     15                       # Number of floating point alu accesses
system.cpu1.iq.fp_inst_queue_reads                 27                       # Number of floating instruction queue reads
system.cpu1.iq.fp_inst_queue_wakeup_accesses           12                       # Number of floating instruction queue wakeup accesses
system.cpu1.iq.fp_inst_queue_writes                12                       # Number of floating instruction queue writes
system.cpu1.iq.fu_busy_cnt                    3274411                       # FU busy when requested
system.cpu1.iq.fu_busy_rate                  0.023785                       # FU busy rate (busy events/executed inst)
system.cpu1.iq.fu_full::No_OpClass                  0      0.00%      0.00% # attempts to use FU when none available
system.cpu1.iq.fu_full::IntAlu                 842916     25.74%     25.74% # attempts to use FU when none available
system.cpu1.iq.fu_full::IntMult                     0      0.00%     25.74% # attempts to use FU when none available
system.cpu1.iq.fu_full::IntDiv                      0      0.00%     25.74% # attempts to use FU when none available
system.cpu1.iq.fu_full::FloatAdd                    0      0.00%     25.74% # attempts to use FU when none available
system.cpu1.iq.fu_full::FloatCmp                    0      0.00%     25.74% # attempts to use FU when none available
system.cpu1.iq.fu_full::FloatCvt                    0      0.00%     25.74% # attempts to use FU when none available
system.cpu1.iq.fu_full::FloatMult                   0      0.00%     25.74% # attempts to use FU when none available
system.cpu1.iq.fu_full::FloatMultAcc                0      0.00%     25.74% # attempts to use FU when none available
system.cpu1.iq.fu_full::FloatDiv                    0      0.00%     25.74% # attempts to use FU when none available
system.cpu1.iq.fu_full::FloatMisc                   0      0.00%     25.74% # attempts to use FU when none available
system.cpu1.iq.fu_full::FloatSqrt                   0      0.00%     25.74% # attempts to use FU when none available
system.cpu1.iq.fu_full::SimdAdd                     0      0.00%     25.74% # attempts to use FU when none available
system.cpu1.iq.fu_full::SimdAddAcc                  0      0.00%     25.74% # attempts to use FU when none available
system.cpu1.iq.fu_full::SimdAlu                     0      0.00%     25.74% # attempts to use FU when none available
system.cpu1.iq.fu_full::SimdCmp                     0      0.00%     25.74% # attempts to use FU when none available
system.cpu1.iq.fu_full::SimdCvt                     0      0.00%     25.74% # attempts to use FU when none available
system.cpu1.iq.fu_full::SimdMisc                    0      0.00%     25.74% # attempts to use FU when none available
system.cpu1.iq.fu_full::SimdMult                    0      0.00%     25.74% # attempts to use FU when none available
system.cpu1.iq.fu_full::SimdMultAcc                 0      0.00%     25.74% # attempts to use FU when none available
system.cpu1.iq.fu_full::SimdShift                   0      0.00%     25.74% # attempts to use FU when none available
system.cpu1.iq.fu_full::SimdShiftAcc                0      0.00%     25.74% # attempts to use FU when none available
system.cpu1.iq.fu_full::SimdDiv                     0      0.00%     25.74% # attempts to use FU when none available
system.cpu1.iq.fu_full::SimdSqrt                    0      0.00%     25.74% # attempts to use FU when none available
system.cpu1.iq.fu_full::SimdFloatAdd                0      0.00%     25.74% # attempts to use FU when none available
system.cpu1.iq.fu_full::SimdFloatAlu                0      0.00%     25.74% # attempts to use FU when none available
system.cpu1.iq.fu_full::SimdFloatCmp                0      0.00%     25.74% # attempts to use FU when none available
system.cpu1.iq.fu_full::SimdFloatCvt                0      0.00%     25.74% # attempts to use FU when none available
system.cpu1.iq.fu_full::SimdFloatDiv                0      0.00%     25.74% # attempts to use FU when none available
system.cpu1.iq.fu_full::SimdFloatMisc               0      0.00%     25.74% # attempts to use FU when none available
system.cpu1.iq.fu_full::SimdFloatMult               0      0.00%     25.74% # attempts to use FU when none available
system.cpu1.iq.fu_full::SimdFloatMultAcc            0      0.00%     25.74% # attempts to use FU when none available
system.cpu1.iq.fu_full::SimdFloatSqrt               0      0.00%     25.74% # attempts to use FU when none available
system.cpu1.iq.fu_full::SimdReduceAdd               0      0.00%     25.74% # attempts to use FU when none available
system.cpu1.iq.fu_full::SimdReduceAlu               0      0.00%     25.74% # attempts to use FU when none available
system.cpu1.iq.fu_full::SimdReduceCmp               0      0.00%     25.74% # attempts to use FU when none available
system.cpu1.iq.fu_full::SimdFloatReduceAdd            0      0.00%     25.74% # attempts to use FU when none available
system.cpu1.iq.fu_full::SimdFloatReduceCmp            0      0.00%     25.74% # attempts to use FU when none available
system.cpu1.iq.fu_full::SimdAes                     0      0.00%     25.74% # attempts to use FU when none available
system.cpu1.iq.fu_full::SimdAesMix                  0      0.00%     25.74% # attempts to use FU when none available
system.cpu1.iq.fu_full::SimdSha1Hash                0      0.00%     25.74% # attempts to use FU when none available
system.cpu1.iq.fu_full::SimdSha1Hash2               0      0.00%     25.74% # attempts to use FU when none available
system.cpu1.iq.fu_full::SimdSha256Hash              0      0.00%     25.74% # attempts to use FU when none available
system.cpu1.iq.fu_full::SimdSha256Hash2             0      0.00%     25.74% # attempts to use FU when none available
system.cpu1.iq.fu_full::SimdShaSigma2               0      0.00%     25.74% # attempts to use FU when none available
system.cpu1.iq.fu_full::SimdShaSigma3               0      0.00%     25.74% # attempts to use FU when none available
system.cpu1.iq.fu_full::SimdPredAlu                 0      0.00%     25.74% # attempts to use FU when none available
system.cpu1.iq.fu_full::MemRead               1897507     57.95%     83.69% # attempts to use FU when none available
[...]
system.cpu1.dcache.ReadReq_miss_rate::.cpu1.data     0.441927                       # miss rate for ReadReq accesses
system.cpu1.dcache.ReadReq_miss_rate::total     0.441927                       # miss rate for ReadReq accesses
system.cpu1.dcache.ReadReq_avg_miss_latency::.cpu1.data 81412.140694                       # average ReadReq miss latency
system.cpu1.dcache.ReadReq_avg_miss_latency::total 81412.140694                       # average ReadReq miss latency
system.cpu1.dcache.ReadReq_mshr_hits::.cpu1.data    161191613                       # number of ReadReq MSHR hits
system.cpu1.dcache.ReadReq_mshr_hits::total    161191613                       # number of ReadReq MSHR hits
system.cpu1.dcache.ReadReq_mshr_misses::.cpu1.data     94619695                       # number of ReadReq MSHR misses
system.cpu1.dcache.ReadReq_mshr_misses::total     94619695                       # number of ReadReq MSHR misses
system.cpu1.dcache.ReadReq_mshr_miss_latency::.cpu1.data 9856288229000                       # number of ReadReq MSHR miss cycles
system.cpu1.dcache.ReadReq_mshr_miss_latency::total 9856288229000                       # number of ReadReq MSHR miss cycles
system.cpu1.dcache.ReadReq_mshr_miss_rate::.cpu1.data     0.163460                       # mshr miss rate for ReadReq accesses
system.cpu1.dcache.ReadReq_mshr_miss_rate::total     0.163460                       # mshr miss rate for ReadReq accesses
system.cpu1.dcache.ReadReq_avg_mshr_miss_latency::.cpu1.data 104167.406469                       # average ReadReq mshr miss latency
system.cpu1.dcache.ReadReq_avg_mshr_miss_latency::total 104167.406469                       # average ReadReq mshr miss latency
system.cpu1.dcache.WriteReq_hits::.cpu1.data     43043256                       # number of WriteReq hits
system.cpu1.dcache.WriteReq_hits::total      43043256                       # number of WriteReq hits
system.cpu1.dcache.WriteReq_misses::.cpu1.data     36311802                       # number of WriteReq misses
system.cpu1.dcache.WriteReq_misses::total     36311802                       # number of WriteReq misses
system.cpu1.dcache.WriteReq_miss_latency::.cpu1.data 2449678562106                       # number of WriteReq miss cycles
system.cpu1.dcache.WriteReq_miss_latency::total 2449678562106                       # number of WriteReq miss cycles
system.cpu1.dcache.WriteReq_accesses::.cpu1.data     79355058                       # number of WriteReq accesses(hits+misses)
system.cpu1.dcache.WriteReq_accesses::total     79355058                       # number of WriteReq accesses(hits+misses)
system.cpu1.dcache.WriteReq_miss_rate::.cpu1.data     0.457586                       # miss rate for WriteReq accesses
system.cpu1.dcache.WriteReq_miss_rate::total     0.457586                       # miss rate for WriteReq accesses
system.cpu1.dcache.WriteReq_avg_miss_latency::.cpu1.data 67462.324291                       # average WriteReq miss latency
system.cpu1.dcache.WriteReq_avg_miss_latency::total 67462.324291                       # average WriteReq miss latency
system.cpu1.dcache.WriteReq_mshr_hits::.cpu1.data     32181945                       # number of WriteReq MSHR hits
system.cpu1.dcache.WriteReq_mshr_hits::total     32181945                       # number of WriteReq MSHR hits
system.cpu1.dcache.WriteReq_mshr_misses::.cpu1.data      4129857                       # number of WriteReq MSHR misses
system.cpu1.dcache.WriteReq_mshr_misses::total      4129857                       # number of WriteReq MSHR misses
system.cpu1.dcache.WriteReq_mshr_miss_latency::.cpu1.data 419339758334                       # number of WriteReq MSHR miss cycles
system.cpu1.dcache.WriteReq_mshr_miss_latency::total 419339758334                       # number of WriteReq MSHR miss cycles
system.cpu1.dcache.WriteReq_mshr_miss_rate::.cpu1.data     0.052043                       # mshr miss rate for WriteReq accesses
system.cpu1.dcache.WriteReq_mshr_miss_rate::total     0.052043                       # mshr miss rate for WriteReq accesses
system.cpu1.dcache.WriteReq_avg_mshr_miss_latency::.cpu1.data 101538.566186                       # average WriteReq mshr miss latency
system.cpu1.dcache.WriteReq_avg_mshr_miss_latency::total 101538.566186                       # average WriteReq mshr miss latency
system.cpu1.dcache.LoadLockedReq_hits::.cpu1.data         3992                       # number of LoadLockedReq hits
system.cpu1.dcache.LoadLockedReq_hits::total         3992                       # number of LoadLockedReq hits
system.cpu1.dcache.LoadLockedReq_misses::.cpu1.data          791                       # number of LoadLockedReq misses
system.cpu1.dcache.LoadLockedReq_misses::total          791                       # number of LoadLockedReq misses
system.cpu1.dcache.LoadLockedReq_miss_latency::.cpu1.data     30860000                       # number of LoadLockedReq miss cycles
system.cpu1.dcache.LoadLockedReq_miss_latency::total     30860000                       # number of LoadLockedReq miss cycles
system.cpu1.dcache.LoadLockedReq_accesses::.cpu1.data         4783                       # number of LoadLockedReq accesses(hits+misses)
system.cpu1.dcache.LoadLockedReq_accesses::total         4783                       # number of LoadLockedReq accesses(hits+misses)
system.cpu1.dcache.LoadLockedReq_miss_rate::.cpu1.data     0.165377                       # miss rate for LoadLockedReq accesses
system.cpu1.dcache.LoadLockedReq_miss_rate::total     0.165377                       # miss rate for LoadLockedReq accesses
system.cpu1.dcache.LoadLockedReq_avg_miss_latency::.cpu1.data 39013.906448                       # average LoadLockedReq miss latency
system.cpu1.dcache.LoadLockedReq_avg_miss_latency::total 39013.906448                       # average LoadLockedReq miss latency
system.cpu1.dcache.LoadLockedReq_mshr_hits::.cpu1.data          752                       # number of LoadLockedReq MSHR hits
system.cpu1.dcache.LoadLockedReq_mshr_hits::total          752                       # number of LoadLockedReq MSHR hits
system.cpu1.dcache.LoadLockedReq_mshr_misses::.cpu1.data           39                       # number of LoadLockedReq MSHR misses
system.cpu1.dcache.LoadLockedReq_mshr_misses::total           39                       # number of LoadLockedReq MSHR misses
system.cpu1.dcache.LoadLockedReq_mshr_miss_latency::.cpu1.data       166500                       # number of LoadLockedReq MSHR miss cycles
system.cpu1.dcache.LoadLockedReq_mshr_miss_latency::total       166500                       # number of LoadLockedReq MSHR miss cycles
system.cpu1.dcache.LoadLockedReq_mshr_miss_rate::.cpu1.data     0.008154                       # mshr miss rate for LoadLockedReq accesses
system.cpu1.dcache.LoadLockedReq_mshr_miss_rate::total     0.008154                       # mshr miss rate for LoadLockedReq accesses
system.cpu1.dcache.LoadLockedReq_avg_mshr_miss_latency::.cpu1.data  4269.230769                       # average LoadLockedReq mshr miss latency
system.cpu1.dcache.LoadLockedReq_avg_mshr_miss_latency::total  4269.230769                       # average LoadLockedReq mshr miss latency
system.cpu1.dcache.StoreCondReq_hits::.cpu1.data         2417                       # number of StoreCondReq hits
system.cpu1.dcache.StoreCondReq_hits::total         2417                       # number of StoreCondReq hits
system.cpu1.dcache.StoreCondReq_misses::.cpu1.data         1690                       # number of StoreCondReq misses
system.cpu1.dcache.StoreCondReq_misses::total         1690                       # number of StoreCondReq misses
system.cpu1.dcache.StoreCondReq_miss_latency::.cpu1.data      9599000                       # number of StoreCondReq miss cycles
system.cpu1.dcache.StoreCondReq_miss_latency::total      9599000                       # number of StoreCondReq miss cycles
system.cpu1.dcache.StoreCondReq_accesses::.cpu1.data         4107                       # number of StoreCondReq accesses(hits+misses)
system.cpu1.dcache.StoreCondReq_accesses::total         4107                       # number of StoreCondReq accesses(hits+misses)
system.cpu1.dcache.StoreCondReq_miss_rate::.cpu1.data     0.411493                       # miss rate for StoreCondReq accesses
system.cpu1.dcache.StoreCondReq_miss_rate::total     0.411493                       # miss rate for StoreCondReq accesses
system.cpu1.dcache.StoreCondReq_avg_miss_latency::.cpu1.data  5679.881657                       # average StoreCondReq miss latency
system.cpu1.dcache.StoreCondReq_avg_miss_latency::total  5679.881657                       # average StoreCondReq miss latency
system.cpu1.dcache.StoreCondReq_mshr_misses::.cpu1.data         1690                       # number of StoreCondReq MSHR misses
system.cpu1.dcache.StoreCondReq_mshr_misses::total         1690                       # number of StoreCondReq MSHR misses
system.cpu1.dcache.StoreCondReq_mshr_miss_latency::.cpu1.data      7909000                       # number of StoreCondReq MSHR miss cycles
system.cpu1.dcache.StoreCondReq_mshr_miss_latency::total      7909000                       # number of StoreCondReq MSHR miss cycles
system.cpu1.dcache.StoreCondReq_mshr_miss_rate::.cpu1.data     0.411493                       # mshr miss rate for StoreCondReq accesses
system.cpu1.dcache.StoreCondReq_mshr_miss_rate::total     0.411493                       # mshr miss rate for StoreCondReq accesses
system.cpu1.dcache.StoreCondReq_avg_mshr_miss_latency::.cpu1.data  4679.881657                       # average StoreCondReq mshr miss latency
system.cpu1.dcache.StoreCondReq_avg_mshr_miss_latency::total  4679.881657                       # average StoreCondReq mshr miss latency
system.cpu1.dcache.SwapReq_hits::.cpu1.data         2084                       # number of SwapReq hits
system.cpu1.dcache.SwapReq_hits::total           2084                       # number of SwapReq hits
system.cpu1.dcache.SwapReq_misses::.cpu1.data       583171                       # number of SwapReq misses
system.cpu1.dcache.SwapReq_misses::total       583171                       # number of SwapReq misses
system.cpu1.dcache.SwapReq_miss_latency::.cpu1.data  23018648500                       # number of SwapReq miss cycles
system.cpu1.dcache.SwapReq_miss_latency::total  23018648500                       # number of SwapReq miss cycles
system.cpu1.dcache.SwapReq_accesses::.cpu1.data       585255                       # number of SwapReq accesses(hits+misses)
system.cpu1.dcache.SwapReq_accesses::total       585255                       # number of SwapReq accesses(hits+misses)
system.cpu1.dcache.SwapReq_miss_rate::.cpu1.data     0.996439                       # miss rate for SwapReq accesses
system.cpu1.dcache.SwapReq_miss_rate::total     0.996439                       # miss rate for SwapReq accesses
system.cpu1.dcache.SwapReq_avg_miss_latency::.cpu1.data 39471.524647                       # average SwapReq miss latency
system.cpu1.dcache.SwapReq_avg_miss_latency::total 39471.524647                       # average SwapReq miss latency
system.cpu1.dcache.SwapReq_mshr_hits::.cpu1.data            2                       # number of SwapReq MSHR hits
system.cpu1.dcache.SwapReq_mshr_hits::total            2                       # number of SwapReq MSHR hits
system.cpu1.dcache.SwapReq_mshr_misses::.cpu1.data       583169                       # number of SwapReq MSHR misses
system.cpu1.dcache.SwapReq_mshr_misses::total       583169                       # number of SwapReq MSHR misses
system.cpu1.dcache.SwapReq_mshr_miss_latency::.cpu1.data  22435477500                       # number of SwapReq MSHR miss cycles
system.cpu1.dcache.SwapReq_mshr_miss_latency::total  22435477500                       # number of SwapReq MSHR miss cycles
system.cpu1.dcache.SwapReq_mshr_miss_rate::.cpu1.data     0.996436                       # mshr miss rate for SwapReq accesses
system.cpu1.dcache.SwapReq_mshr_miss_rate::total     0.996436                       # mshr miss rate for SwapReq accesses
system.cpu1.dcache.SwapReq_avg_mshr_miss_latency::.cpu1.data 38471.656587                       # average SwapReq mshr miss latency
system.cpu1.dcache.SwapReq_avg_mshr_miss_latency::total 38471.656587                       # average SwapReq mshr miss latency
system.cpu1.dcache.tags.pwrStateResidencyTicks::UNDEFINED 3219122578500                       # Cumulative time (in ticks) in various power states
system.cpu1.dcache.tags.tagsinuse           31.932534                       # Cycle average of tags in use
system.cpu1.dcache.tags.total_refs          465653238                       # Total number of references to valid blocks.
system.cpu1.dcache.tags.sampled_refs         98959679                       # Sample count of references to valid blocks.
system.cpu1.dcache.tags.avg_refs             4.705485                       # Average number of references to valid blocks.
system.cpu1.dcache.tags.warmup_cycle                0                       # Cycle when the warmup percentage was hit.
system.cpu1.dcache.tags.occ_blocks::.cpu1.data    31.932534                       # Average occupied blocks per requestor
system.cpu1.dcache.tags.occ_percent::.cpu1.data     0.997892                       # Average percentage of cache occupancy
system.cpu1.dcache.tags.occ_percent::total     0.997892                       # Average percentage of cache occupancy
system.cpu1.dcache.tags.occ_task_id_blocks::1024           27                       # Occupied blocks per task id
system.cpu1.dcache.tags.age_task_id_blocks_1024::1           27                       # Occupied blocks per task id
system.cpu1.dcache.tags.occ_task_id_percent::1024     0.843750                       # Percentage of cache occupancy per task id
system.cpu1.dcache.tags.tag_accesses       1416566359                       # Number of tag accesses
system.cpu1.dcache.tags.data_accesses      1416566359                       # Number of data accesses
system.cpu_clk_domain.clock                       500                       # Clock period in ticks
system.tol2bus.pwrStateResidencyTicks::UNDEFINED 3219122578500                       # Cumulative time (in ticks) in various power states
system.tol2bus.trans_dist::ReadResp         190043148                       # Transaction distribution
system.tol2bus.trans_dist::WritebackDirty     26563876                       # Transaction distribution
system.tol2bus.trans_dist::WritebackClean    183047345                       # Transaction distribution
system.tol2bus.trans_dist::CleanEvict       316039459                       # Transaction distribution
system.tol2bus.trans_dist::UpgradeReq          880404                       # Transaction distribution
system.tol2bus.trans_dist::SCUpgradeReq          2930                       # Transaction distribution
system.tol2bus.trans_dist::UpgradeResp         883334                       # Transaction distribution
system.tol2bus.trans_dist::ReadExReq          8728537                       # Transaction distribution
system.tol2bus.trans_dist::ReadExResp         8728537                       # Transaction distribution
system.tol2bus.trans_dist::ReadCleanReq        109295                       # Transaction distribution
system.tol2bus.trans_dist::ReadSharedReq    189933854                       # Transaction distribution
system.tol2bus.pkt_count_system.cpu0.icache.mem_side::system.l2.cpu_side       267589                       # Packet count per connected master and slave (bytes)
system.tol2bus.pkt_count_system.cpu0.dcache.mem_side::system.l2.cpu_side    298277642                       # Packet count per connected master and slave (bytes)
system.tol2bus.pkt_count_system.cpu1.icache.mem_side::system.l2.cpu_side        60294                       # Packet count per connected master and slave (bytes)
system.tol2bus.pkt_count_system.cpu1.dcache.mem_side::system.l2.cpu_side    296014558                       # Packet count per connected master and slave (bytes)
system.tol2bus.pkt_count::total             594620083                       # Packet count per connected master and slave (bytes)
system.tol2bus.pkt_size_system.cpu0.icache.mem_side::system.l2.cpu_side     11417088                       # Cumulative packet size per connected master and slave (bytes)
system.tol2bus.pkt_size_system.cpu0.dcache.mem_side::system.l2.cpu_side  12671105344                       # Cumulative packet size per connected master and slave (bytes)
system.tol2bus.pkt_size_system.cpu1.icache.mem_side::system.l2.cpu_side      2572544                       # Cumulative packet size per connected master and slave (bytes)
system.tol2bus.pkt_size_system.cpu1.dcache.mem_side::system.l2.cpu_side  12574781056                       # Cumulative packet size per connected master and slave (bytes)
system.tol2bus.pkt_size::total            25259876032                       # Cumulative packet size per connected master and slave (bytes)
system.tol2bus.snoops                       330340636                       # Total snoops (count)
system.tol2bus.snoopTraffic                 876629952                       # Total snoop traffic (bytes)
system.tol2bus.snoop_fanout::samples        527986197                       # Request fanout histogram
system.tol2bus.snoop_fanout::mean            0.306046                       # Request fanout histogram
system.tol2bus.snoop_fanout::stdev           0.476303                       # Request fanout histogram
system.tol2bus.snoop_fanout::underflows             0      0.00%      0.00% # Request fanout histogram
system.tol2bus.snoop_fanout::0              370221239     70.12%     70.12% # Request fanout histogram
system.tol2bus.snoop_fanout::1              153941718     29.16%     99.28% # Request fanout histogram
system.tol2bus.snoop_fanout::2                3823240      0.72%    100.00% # Request fanout histogram
system.tol2bus.snoop_fanout::3                      0      0.00%    100.00% # Request fanout histogram
system.tol2bus.snoop_fanout::4                      0      0.00%    100.00% # Request fanout histogram
system.tol2bus.snoop_fanout::5                      0      0.00%    100.00% # Request fanout histogram
system.tol2bus.snoop_fanout::6                      0      0.00%    100.00% # Request fanout histogram
system.tol2bus.snoop_fanout::7                      0      0.00%    100.00% # Request fanout histogram
system.tol2bus.snoop_fanout::8                      0      0.00%    100.00% # Request fanout histogram
system.tol2bus.snoop_fanout::overflows              0      0.00%    100.00% # Request fanout histogram
system.tol2bus.snoop_fanout::min_value              0                       # Request fanout histogram
system.tol2bus.snoop_fanout::max_value              2                       # Request fanout histogram
system.tol2bus.snoop_fanout::total          527986197                       # Request fanout histogram
system.tol2bus.reqLayer0.occupancy       395833822289                       # Layer occupancy (ticks)
system.tol2bus.reqLayer0.utilization             12.3                       # Layer utilization (%)
system.tol2bus.respLayer1.occupancy      149957559696                       # Layer occupancy (ticks)
system.tol2bus.respLayer1.utilization             4.7                       # Layer utilization (%)
system.tol2bus.respLayer0.occupancy         133952682                       # Layer occupancy (ticks)
system.tol2bus.respLayer0.utilization             0.0                       # Layer utilization (%)
system.tol2bus.respLayer3.occupancy      148840056814                       # Layer occupancy (ticks)
system.tol2bus.respLayer3.utilization             4.6                       # Layer utilization (%)
system.tol2bus.respLayer2.occupancy          30309175                       # Layer occupancy (ticks)
system.tol2bus.respLayer2.utilization             0.0                       # Layer utilization (%)

---------- End Simulation Statistics   ----------
