
---------- Begin Simulation Statistics ----------
final_tick                               1051097014000                       # Number of ticks from beginning of simulation (restored from checkpoints and never reset)
host_inst_rate                                  69452                       # Simulator instruction rate (inst/s)
host_mem_usage                                 701612                       # Number of bytes of host memory used
host_op_rate                                    69680                       # Simulator op (including micro ops) rate (op/s)
host_seconds                                 15923.55                       # Real time elapsed on the host
host_tick_rate                               66008949                       # Simulator tick rate (ticks/s)
sim_freq                                 1000000000000                       # Frequency of simulated ticks
sim_insts                                  1105926409                       # Number of instructions simulated
sim_ops                                    1109551782                       # Number of ops (including micro ops) simulated
sim_seconds                                  1.051097                       # Number of seconds simulated
sim_ticks                                1051097014000                       # Number of ticks simulated
system.cpu0.branchPred.BTBCorrect                   0                       # Number of correct BTB predictions (this stat may not work properly.
system.cpu0.branchPred.BTBHitPct            85.261544                       # BTB Hit Percentage
system.cpu0.branchPred.BTBHits              139848901                       # Number of BTB hits
system.cpu0.branchPred.BTBLookups           164023421                       # Number of BTB lookups
system.cpu0.branchPred.RASInCorrect                 0                       # Number of incorrect RAS predictions.
system.cpu0.branchPred.condIncorrect         11033565                       # Number of conditional branches incorrect
system.cpu0.branchPred.condPredicted        223439703                       # Number of conditional branches predicted
system.cpu0.branchPred.indirectHits          22050029                       # Number of indirect target hits.
system.cpu0.branchPred.indirectLookups       22184318                       # Number of indirect predictor lookups.
system.cpu0.branchPred.indirectMisses          134289                       # Number of indirect misses.
system.cpu0.branchPred.lookups              287384819                       # Number of BP lookups
system.cpu0.branchPred.usedRAS                      0                       # Number of times the RAS was used to get a target.
system.cpu0.branchPredindirectMispredicted      1862931                       # Number of mispredicted indirect branches.
system.cpu0.commit.amos                       1811473                       # Number of atomic instructions committed
system.cpu0.commit.branchMispredicts          7615741                       # The number of times a branch was mispredicted
system.cpu0.commit.branches                 260708137                       # Number of branches committed
system.cpu0.commit.bw_lim_events             35176867                       # number cycles where commit BW limit reached
system.cpu0.commit.commitNonSpecStalls        5441406                       # The number of times commit has been forced to stall to communicate backwards
system.cpu0.commit.commitSquashedInsts      105718326                       # The number of squashed insts skipped by commit
system.cpu0.commit.committedInsts          1050838256                       # Number of instructions committed
system.cpu0.commit.committedOps            1052652255                       # Number of ops (including micro ops) committed
system.cpu0.commit.committed_per_cycle::samples   1879731550                       # Number of insts commited each cycle
system.cpu0.commit.committed_per_cycle::mean     0.560001                       # Number of insts commited each cycle
system.cpu0.commit.committed_per_cycle::stdev     1.381159                       # Number of insts commited each cycle
system.cpu0.commit.committed_per_cycle::underflows            0      0.00%      0.00% # Number of insts commited each cycle
system.cpu0.commit.committed_per_cycle::0   1389897586     73.94%     73.94% # Number of insts commited each cycle
system.cpu0.commit.committed_per_cycle::1    291668690     15.52%     89.46% # Number of insts commited each cycle
system.cpu0.commit.committed_per_cycle::2     68466149      3.64%     93.10% # Number of insts commited each cycle
system.cpu0.commit.committed_per_cycle::3     62393466      3.32%     96.42% # Number of insts commited each cycle
system.cpu0.commit.committed_per_cycle::4     19729138      1.05%     97.47% # Number of insts commited each cycle
system.cpu0.commit.committed_per_cycle::5      3488913      0.19%     97.65% # Number of insts commited each cycle
system.cpu0.commit.committed_per_cycle::6      3280371      0.17%     97.83% # Number of insts commited each cycle
system.cpu0.commit.committed_per_cycle::7      5630370      0.30%     98.13% # Number of insts commited each cycle
system.cpu0.commit.committed_per_cycle::8     35176867      1.87%    100.00% # Number of insts commited each cycle
system.cpu0.commit.committed_per_cycle::overflows            0      0.00%    100.00% # Number of insts commited each cycle
system.cpu0.commit.committed_per_cycle::min_value            0                       # Number of insts commited each cycle
system.cpu0.commit.committed_per_cycle::max_value            8                       # Number of insts commited each cycle
system.cpu0.commit.committed_per_cycle::total   1879731550                       # Number of insts commited each cycle
system.cpu0.commit.fp_insts                        65                       # Number of committed floating point instructions.
system.cpu0.commit.function_calls            20858873                       # Number of function calls committed.
system.cpu0.commit.int_insts               1016021854                       # Number of committed integer instructions.
system.cpu0.commit.loads                    326233430                       # Number of loads committed
system.cpu0.commit.membars                    3625353                       # Number of memory barriers committed
system.cpu0.commit.op_class_0::No_OpClass      3625362      0.34%      0.34% # Class of committed instruction
system.cpu0.commit.op_class_0::IntAlu       583976103     55.48%     55.82% # Class of committed instruction
system.cpu0.commit.op_class_0::IntMult        8030383      0.76%     56.58% # Class of committed instruction
system.cpu0.commit.op_class_0::IntDiv         1811041      0.17%     56.76% # Class of committed instruction
system.cpu0.commit.op_class_0::FloatAdd             0      0.00%     56.76% # Class of committed instruction
system.cpu0.commit.op_class_0::FloatCmp             6      0.00%     56.76% # Class of committed instruction
system.cpu0.commit.op_class_0::FloatCvt            16      0.00%     56.76% # Class of committed instruction
system.cpu0.commit.op_class_0::FloatMult            0      0.00%     56.76% # Class of committed instruction
system.cpu0.commit.op_class_0::FloatMultAcc            0      0.00%     56.76% # Class of committed instruction
system.cpu0.commit.op_class_0::FloatDiv             2      0.00%     56.76% # Class of committed instruction
system.cpu0.commit.op_class_0::FloatMisc            6      0.00%     56.76% # Class of committed instruction
system.cpu0.commit.op_class_0::FloatSqrt            0      0.00%     56.76% # Class of committed instruction
system.cpu0.commit.op_class_0::SimdAdd              0      0.00%     56.76% # Class of committed instruction
system.cpu0.commit.op_class_0::SimdAddAcc            0      0.00%     56.76% # Class of committed instruction
system.cpu0.commit.op_class_0::SimdAlu              0      0.00%     56.76% # Class of committed instruction
system.cpu0.commit.op_class_0::SimdCmp              0      0.00%     56.76% # Class of committed instruction
system.cpu0.commit.op_class_0::SimdCvt              0      0.00%     56.76% # Class of committed instruction
system.cpu0.commit.op_class_0::SimdMisc             0      0.00%     56.76% # Class of committed instruction
system.cpu0.commit.op_class_0::SimdMult             0      0.00%     56.76% # Class of committed instruction
system.cpu0.commit.op_class_0::SimdMultAcc            0      0.00%     56.76% # Class of committed instruction
system.cpu0.commit.op_class_0::SimdShift            0      0.00%     56.76% # Class of committed instruction
system.cpu0.commit.op_class_0::SimdShiftAcc            0      0.00%     56.76% # Class of committed instruction
system.cpu0.commit.op_class_0::SimdDiv              0      0.00%     56.76% # Class of committed instruction
system.cpu0.commit.op_class_0::SimdSqrt             0      0.00%     56.76% # Class of committed instruction
system.cpu0.commit.op_class_0::SimdFloatAdd            0      0.00%     56.76% # Class of committed instruction
system.cpu0.commit.op_class_0::SimdFloatAlu            0      0.00%     56.76% # Class of committed instruction
system.cpu0.commit.op_class_0::SimdFloatCmp            0      0.00%     56.76% # Class of committed instruction
system.cpu0.commit.op_class_0::SimdFloatCvt            0      0.00%     56.76% # Class of committed instruction
system.cpu0.commit.op_class_0::SimdFloatDiv            0      0.00%     56.76% # Class of committed instruction
system.cpu0.commit.op_class_0::SimdFloatMisc            0      0.00%     56.76% # Class of committed instruction
system.cpu0.commit.op_class_0::SimdFloatMult            0      0.00%     56.76% # Class of committed instruction
system.cpu0.commit.op_class_0::SimdFloatMultAcc            0      0.00%     56.76% # Class of committed instruction
system.cpu0.commit.op_class_0::SimdFloatSqrt            0      0.00%     56.76% # Class of committed instruction
system.cpu0.commit.op_class_0::SimdReduceAdd            0      0.00%     56.76% # Class of committed instruction
system.cpu0.commit.op_class_0::SimdReduceAlu            0      0.00%     56.76% # Class of committed instruction
system.cpu0.commit.op_class_0::SimdReduceCmp            0      0.00%     56.76% # Class of committed instruction
system.cpu0.commit.op_class_0::SimdFloatReduceAdd            0      0.00%     56.76% # Class of committed instruction
system.cpu0.commit.op_class_0::SimdFloatReduceCmp            0      0.00%     56.76% # Class of committed instruction
system.cpu0.commit.op_class_0::SimdAes              0      0.00%     56.76% # Class of committed instruction
system.cpu0.commit.op_class_0::SimdAesMix            0      0.00%     56.76% # Class of committed instruction
system.cpu0.commit.op_class_0::SimdSha1Hash            0      0.00%     56.76% # Class of committed instruction
system.cpu0.commit.op_class_0::SimdSha1Hash2            0      0.00%     56.76% # Class of committed instruction
system.cpu0.commit.op_class_0::SimdSha256Hash            0      0.00%     56.76% # Class of committed instruction
system.cpu0.commit.op_class_0::SimdSha256Hash2            0      0.00%     56.76% # Class of committed instruction
system.cpu0.commit.op_class_0::SimdShaSigma2            0      0.00%     56.76% # Class of committed instruction
system.cpu0.commit.op_class_0::SimdShaSigma3            0      0.00%     56.76% # Class of committed instruction
system.cpu0.commit.op_class_0::SimdPredAlu            0      0.00%     56.76% # Class of committed instruction
system.cpu0.commit.op_class_0::MemRead      328044891     31.16%     87.92% # Class of committed instruction
system.cpu0.commit.op_class_0::MemWrite     127164410     12.08%    100.00% # Class of committed instruction
system.cpu0.commit.op_class_0::FloatMemRead           12      0.00%    100.00% # Class of committed instruction
system.cpu0.commit.op_class_0::FloatMemWrite           23      0.00%    100.00% # Class of committed instruction
system.cpu0.commit.op_class_0::IprAccess            0      0.00%    100.00% # Class of committed instruction
system.cpu0.commit.op_class_0::InstPrefetch            0      0.00%    100.00% # Class of committed instruction
system.cpu0.commit.op_class_0::total       1052652255                       # Class of committed instruction
system.cpu0.commit.refs                     455209336                       # Number of memory references committed
system.cpu0.commit.swp_count                        0                       # Number of s/w prefetches committed
system.cpu0.commit.vec_insts                        0                       # Number of committed Vector instructions.
system.cpu0.committedInsts                 1050838256                       # Number of Instructions Simulated
system.cpu0.committedOps                   1052652255                       # Number of Ops (including micro ops) Simulated
system.cpu0.cpi                              1.995860                       # CPI: Cycles Per Instruction
system.cpu0.cpi_total                        1.995860                       # CPI: Total CPI of All Threads
system.cpu0.decode.BlockedCycles            362751550                       # Number of cycles decode is blocked
system.cpu0.decode.BranchMispred              3426081                       # Number of times decode detected a branch misprediction
system.cpu0.decode.BranchResolved           138607355                       # Number of times decode resolved a branch
system.cpu0.decode.DecodedInsts            1177522482                       # Number of instructions handled by decode
system.cpu0.decode.IdleCycles               700160229                       # Number of cycles decode is idle
system.cpu0.decode.RunCycles                820210720                       # Number of cycles decode is running
system.cpu0.decode.SquashCycles               7630560                       # Number of cycles decode is squashing
system.cpu0.decode.SquashedInsts             11942346                       # Number of squashed instructions handled by decode
system.cpu0.decode.UnblockCycles              6877694                       # Number of cycles decode is unblocking
system.cpu0.dtb.accesses                            0                       # DTB accesses
system.cpu0.dtb.hits                                0                       # DTB hits
system.cpu0.dtb.misses                              0                       # DTB misses
system.cpu0.dtb.read_accesses                       0                       # DTB read accesses
system.cpu0.dtb.read_hits                           0                       # DTB read hits
system.cpu0.dtb.read_misses                         0                       # DTB read misses
system.cpu0.dtb.write_accesses                      0                       # DTB write accesses
system.cpu0.dtb.write_hits                          0                       # DTB write hits
system.cpu0.dtb.write_misses                        0                       # DTB write misses
system.cpu0.fetch.Branches                  287384819                       # Number of branches that fetch encountered
system.cpu0.fetch.CacheLines                205068717                       # Number of cache lines fetched
system.cpu0.fetch.Cycles                   1189212295                       # Number of cycles fetch has run and was not squashing or blocked
system.cpu0.fetch.IcacheSquashes              4389258                       # Number of outstanding Icache misses that were squashed
system.cpu0.fetch.IcacheWaitRetryStallCycles          169                       # Number of stall cycles due to full MSHR
system.cpu0.fetch.Insts                    1196152972                       # Number of instructions fetch has processed
system.cpu0.fetch.MiscStallCycles                  40                       # Number of cycles fetch has spent waiting on interrupts, or bad addresses, or out of MSHRs
system.cpu0.fetch.PendingTrapStallCycles          118                       # Number of stall cycles due to pending traps
system.cpu0.fetch.SquashCycles               22096804                       # Number of cycles fetch has spent squashing
system.cpu0.fetch.branchRate                 0.137024                       # Number of branch fetches per cycle
system.cpu0.fetch.icacheStallCycles         697369729                       # Number of cycles fetch is stalled on an Icache miss
system.cpu0.fetch.predictedBranches         161898930                       # Number of branches that fetch has predicted taken
system.cpu0.fetch.rate                       0.570323                       # Number of inst fetches per cycle
system.cpu0.fetch.rateDist::samples        1897630753                       # Number of instructions fetched each cycle (Total)
system.cpu0.fetch.rateDist::mean             0.631297                       # Number of instructions fetched each cycle (Total)
system.cpu0.fetch.rateDist::stdev            0.879960                       # Number of instructions fetched each cycle (Total)
system.cpu0.fetch.rateDist::underflows              0      0.00%      0.00% # Number of instructions fetched each cycle (Total)
system.cpu0.fetch.rateDist::0              1038457189     54.72%     54.72% # Number of instructions fetched each cycle (Total)
system.cpu0.fetch.rateDist::1               641387528     33.80%     88.52% # Number of instructions fetched each cycle (Total)
system.cpu0.fetch.rateDist::2               131057407      6.91%     95.43% # Number of instructions fetched each cycle (Total)
system.cpu0.fetch.rateDist::3                65735526      3.46%     98.89% # Number of instructions fetched each cycle (Total)
system.cpu0.fetch.rateDist::4                12042451      0.63%     99.53% # Number of instructions fetched each cycle (Total)
system.cpu0.fetch.rateDist::5                 6646191      0.35%     99.88% # Number of instructions fetched each cycle (Total)
system.cpu0.fetch.rateDist::6                  380015      0.02%     99.90% # Number of instructions fetched each cycle (Total)
system.cpu0.fetch.rateDist::7                 1816602      0.10%     99.99% # Number of instructions fetched each cycle (Total)
system.cpu0.fetch.rateDist::8                  107844      0.01%    100.00% # Number of instructions fetched each cycle (Total)
system.cpu0.fetch.rateDist::overflows               0      0.00%    100.00% # Number of instructions fetched each cycle (Total)
system.cpu0.fetch.rateDist::min_value               0                       # Number of instructions fetched each cycle (Total)
system.cpu0.fetch.rateDist::max_value               8                       # Number of instructions fetched each cycle (Total)
system.cpu0.fetch.rateDist::total          1897630753                       # Number of instructions fetched each cycle (Total)
system.cpu0.fp_regfile_reads                       57                       # number of floating regfile reads
system.cpu0.fp_regfile_writes                      31                       # number of floating regfile writes
system.cpu0.idleCycles                      199695636                       # Total number of cycles that the CPU has spent unscheduled due to idling
system.cpu0.iew.branchMispredicts             7727658                       # Number of branch mispredicts detected at execute
system.cpu0.iew.exec_branches               273638467                       # Number of branches executed
system.cpu0.iew.exec_nop                            0                       # number of nop insts executed
system.cpu0.iew.exec_rate                    0.547853                       # Inst execution rate
system.cpu0.iew.exec_refs                   514873902                       # number of memory reference insts executed
system.cpu0.iew.exec_stores                 142997279                       # Number of stores executed
system.cpu0.iew.exec_swp                            0                       # number of swp insts executed
system.cpu0.iew.iewBlockCycles              292825865                       # Number of cycles IEW is blocking
system.cpu0.iew.iewDispLoadInsts            370767860                       # Number of dispatched load instructions
system.cpu0.iew.iewDispNonSpecInsts           1816727                       # Number of dispatched non-speculative instructions
system.cpu0.iew.iewDispSquashedInsts          3404538                       # Number of squashed instructions skipped by dispatch
system.cpu0.iew.iewDispStoreInsts           144568932                       # Number of dispatched store instructions
system.cpu0.iew.iewDispatchedInsts         1158354210                       # Number of instructions dispatched to IQ
system.cpu0.iew.iewExecLoadInsts            371876623                       # Number of load instructions executed
system.cpu0.iew.iewExecSquashedInsts          5572904                       # Number of squashed instructions skipped in execute
system.cpu0.iew.iewExecutedInsts           1149027226                       # Number of executed instructions
system.cpu0.iew.iewIQFullEvents               1752718                       # Number of times the IQ has become full, causing a stall
system.cpu0.iew.iewIdleCycles                       0                       # Number of cycles IEW is idle
system.cpu0.iew.iewLSQFullEvents              4239065                       # Number of times the LSQ has become full, causing a stall
system.cpu0.iew.iewSquashCycles               7630560                       # Number of cycles IEW is squashing
system.cpu0.iew.iewUnblockCycles              8037811                       # Number of cycles IEW is unblocking
system.cpu0.iew.lsq.thread0.blockedLoads            0                       # Number of blocked loads due to partial load-store forwarding
system.cpu0.iew.lsq.thread0.cacheBlocked       133115                       # Number of times an access to memory failed due to the cache being blocked
system.cpu0.iew.lsq.thread0.forwLoads        20987216                       # Number of loads that had data forwarded from stores
system.cpu0.iew.lsq.thread0.ignoredResponses        41420                       # Number of memory responses ignored because the instruction is squashed
system.cpu0.iew.lsq.thread0.invAddrLoads            0                       # Number of loads ignored due to an invalid address
system.cpu0.iew.lsq.thread0.invAddrSwpfs            0                       # Number of software prefetches ignored due to an invalid address
system.cpu0.iew.lsq.thread0.memOrderViolation        15101                       # Number of memory ordering violations
system.cpu0.iew.lsq.thread0.rescheduledLoads      7346158                       # Number of loads that were rescheduled
system.cpu0.iew.lsq.thread0.squashedLoads     44534430                       # Number of loads squashed
system.cpu0.iew.lsq.thread0.squashedStores     15593026                       # Number of stores squashed
system.cpu0.iew.memOrderViolationEvents         15101                       # Number of memory order violations
system.cpu0.iew.predictedNotTakenIncorrect      1165447                       # Number of branches that were predicted not taken incorrectly
system.cpu0.iew.predictedTakenIncorrect       6562211                       # Number of branches that were predicted taken incorrectly
system.cpu0.iew.wb_consumers                489234215                       # num instructions consuming a value
system.cpu0.iew.wb_count                   1136174017                       # cumulative count of insts written-back
system.cpu0.iew.wb_fanout                    0.849244                       # average fanout of values written-back
system.cpu0.iew.wb_producers                415479119                       # num instructions producing a value
system.cpu0.iew.wb_rate                      0.541725                       # insts written-back per cycle
system.cpu0.iew.wb_sent                    1136338124                       # cumulative count of insts sent to commit
system.cpu0.int_regfile_reads              1400858193                       # number of integer regfile reads
system.cpu0.int_regfile_writes              727688004                       # number of integer regfile writes
system.cpu0.ipc                              0.501037                       # IPC: Instructions Per Cycle
system.cpu0.ipc_total                        0.501037                       # IPC: Total IPC of All Threads
system.cpu0.iq.FU_type_0::No_OpClass          3626874      0.31%      0.31% # Type of FU issued
system.cpu0.iq.FU_type_0::IntAlu            624044026     54.05%     54.36% # Type of FU issued
system.cpu0.iq.FU_type_0::IntMult             8036301      0.70%     55.06% # Type of FU issued
system.cpu0.iq.FU_type_0::IntDiv              1811567      0.16%     55.22% # Type of FU issued
system.cpu0.iq.FU_type_0::FloatAdd                  0      0.00%     55.22% # Type of FU issued
system.cpu0.iq.FU_type_0::FloatCmp                  6      0.00%     55.22% # Type of FU issued
system.cpu0.iq.FU_type_0::FloatCvt                 16      0.00%     55.22% # Type of FU issued
system.cpu0.iq.FU_type_0::FloatMult                 0      0.00%     55.22% # Type of FU issued
system.cpu0.iq.FU_type_0::FloatMultAcc              0      0.00%     55.22% # Type of FU issued
system.cpu0.iq.FU_type_0::FloatDiv                  2      0.00%     55.22% # Type of FU issued
system.cpu0.iq.FU_type_0::FloatMisc                 6      0.00%     55.22% # Type of FU issued
system.cpu0.iq.FU_type_0::FloatSqrt                 0      0.00%     55.22% # Type of FU issued
system.cpu0.iq.FU_type_0::SimdAdd                   0      0.00%     55.22% # Type of FU issued
system.cpu0.iq.FU_type_0::SimdAddAcc                0      0.00%     55.22% # Type of FU issued
system.cpu0.iq.FU_type_0::SimdAlu                   0      0.00%     55.22% # Type of FU issued
system.cpu0.iq.FU_type_0::SimdCmp                   0      0.00%     55.22% # Type of FU issued
system.cpu0.iq.FU_type_0::SimdCvt                   0      0.00%     55.22% # Type of FU issued
system.cpu0.iq.FU_type_0::SimdMisc                  0      0.00%     55.22% # Type of FU issued
system.cpu0.iq.FU_type_0::SimdMult                  0      0.00%     55.22% # Type of FU issued
system.cpu0.iq.FU_type_0::SimdMultAcc               0      0.00%     55.22% # Type of FU issued
system.cpu0.iq.FU_type_0::SimdShift                 0      0.00%     55.22% # Type of FU issued
system.cpu0.iq.FU_type_0::SimdShiftAcc              0      0.00%     55.22% # Type of FU issued
system.cpu0.iq.FU_type_0::SimdDiv                   0      0.00%     55.22% # Type of FU issued
system.cpu0.iq.FU_type_0::SimdSqrt                  0      0.00%     55.22% # Type of FU issued
system.cpu0.iq.FU_type_0::SimdFloatAdd              0      0.00%     55.22% # Type of FU issued
system.cpu0.iq.FU_type_0::SimdFloatAlu              0      0.00%     55.22% # Type of FU issued
system.cpu0.iq.FU_type_0::SimdFloatCmp              0      0.00%     55.22% # Type of FU issued
system.cpu0.iq.FU_type_0::SimdFloatCvt              0      0.00%     55.22% # Type of FU issued
system.cpu0.iq.FU_type_0::SimdFloatDiv              0      0.00%     55.22% # Type of FU issued
system.cpu0.iq.FU_type_0::SimdFloatMisc             0      0.00%     55.22% # Type of FU issued
system.cpu0.iq.FU_type_0::SimdFloatMult             0      0.00%     55.22% # Type of FU issued
system.cpu0.iq.FU_type_0::SimdFloatMultAcc            0      0.00%     55.22% # Type of FU issued
system.cpu0.iq.FU_type_0::SimdFloatSqrt             0      0.00%     55.22% # Type of FU issued
system.cpu0.iq.FU_type_0::SimdReduceAdd             0      0.00%     55.22% # Type of FU issued
system.cpu0.iq.FU_type_0::SimdReduceAlu             0      0.00%     55.22% # Type of FU issued
system.cpu0.iq.FU_type_0::SimdReduceCmp             0      0.00%     55.22% # Type of FU issued
system.cpu0.iq.FU_type_0::SimdFloatReduceAdd            0      0.00%     55.22% # Type of FU issued
system.cpu0.iq.FU_type_0::SimdFloatReduceCmp            0      0.00%     55.22% # Type of FU issued
system.cpu0.iq.FU_type_0::SimdAes                   0      0.00%     55.22% # Type of FU issued
system.cpu0.iq.FU_type_0::SimdAesMix                0      0.00%     55.22% # Type of FU issued
system.cpu0.iq.FU_type_0::SimdSha1Hash              0      0.00%     55.22% # Type of FU issued
system.cpu0.iq.FU_type_0::SimdSha1Hash2             0      0.00%     55.22% # Type of FU issued
system.cpu0.iq.FU_type_0::SimdSha256Hash            0      0.00%     55.22% # Type of FU issued
system.cpu0.iq.FU_type_0::SimdSha256Hash2            0      0.00%     55.22% # Type of FU issued
system.cpu0.iq.FU_type_0::SimdShaSigma2             0      0.00%     55.22% # Type of FU issued
system.cpu0.iq.FU_type_0::SimdShaSigma3             0      0.00%     55.22% # Type of FU issued
system.cpu0.iq.FU_type_0::SimdPredAlu               0      0.00%     55.22% # Type of FU issued
system.cpu0.iq.FU_type_0::MemRead           375476497     32.52%     87.74% # Type of FU issued
system.cpu0.iq.FU_type_0::MemWrite          141604784     12.26%    100.00% # Type of FU issued
system.cpu0.iq.FU_type_0::FloatMemRead             28      0.00%    100.00% # Type of FU issued
system.cpu0.iq.FU_type_0::FloatMemWrite            24      0.00%    100.00% # Type of FU issued
system.cpu0.iq.FU_type_0::IprAccess                 0      0.00%    100.00% # Type of FU issued
system.cpu0.iq.FU_type_0::InstPrefetch              0      0.00%    100.00% # Type of FU issued
system.cpu0.iq.FU_type_0::total            1154600131                       # Type of FU issued
system.cpu0.iq.fp_alu_accesses                     85                       # Number of floating point alu accesses
system.cpu0.iq.fp_inst_queue_reads                167                       # Number of floating instruction queue reads
system.cpu0.iq.fp_inst_queue_wakeup_accesses           66                       # Number of floating instruction queue wakeup accesses
system.cpu0.iq.fp_inst_queue_writes                99                       # Number of floating instruction queue writes
system.cpu0.iq.fu_busy_cnt                    2387072                       # FU busy when requested
system.cpu0.iq.fu_busy_rate                  0.002067                       # FU busy rate (busy events/executed inst)
system.cpu0.iq.fu_full::No_OpClass                  0      0.00%      0.00% # attempts to use FU when none available
system.cpu0.iq.fu_full::IntAlu                 477632     20.01%     20.01% # attempts to use FU when none available
system.cpu0.iq.fu_full::IntMult                     0      0.00%     20.01% # attempts to use FU when none available
system.cpu0.iq.fu_full::IntDiv                      0      0.00%     20.01% # attempts to use FU when none available
system.cpu0.iq.fu_full::FloatAdd                    0      0.00%     20.01% # attempts to use FU when none available
system.cpu0.iq.fu_full::FloatCmp                    0      0.00%     20.01% # attempts to use FU when none available
system.cpu0.iq.fu_full::FloatCvt                    0      0.00%     20.01% # attempts to use FU when none available
system.cpu0.iq.fu_full::FloatMult                   0      0.00%     20.01% # attempts to use FU when none available
system.cpu0.iq.fu_full::FloatMultAcc                0      0.00%     20.01% # attempts to use FU when none available
system.cpu0.iq.fu_full::FloatDiv                    0      0.00%     20.01% # attempts to use FU when none available
system.cpu0.iq.fu_full::FloatMisc                   0      0.00%     20.01% # attempts to use FU when none available
system.cpu0.iq.fu_full::FloatSqrt                   0      0.00%     20.01% # attempts to use FU when none available
system.cpu0.iq.fu_full::SimdAdd                     0      0.00%     20.01% # attempts to use FU when none available
system.cpu0.iq.fu_full::SimdAddAcc                  0      0.00%     20.01% # attempts to use FU when none available
system.cpu0.iq.fu_full::SimdAlu                     0      0.00%     20.01% # attempts to use FU when none available
system.cpu0.iq.fu_full::SimdCmp                     0      0.00%     20.01% # attempts to use FU when none available
system.cpu0.iq.fu_full::SimdCvt                     0      0.00%     20.01% # attempts to use FU when none available
system.cpu0.iq.fu_full::SimdMisc                    0      0.00%     20.01% # attempts to use FU when none available
system.cpu0.iq.fu_full::SimdMult                    0      0.00%     20.01% # attempts to use FU when none available
system.cpu0.iq.fu_full::SimdMultAcc                 0      0.00%     20.01% # attempts to use FU when none available
system.cpu0.iq.fu_full::SimdShift                   0      0.00%     20.01% # attempts to use FU when none available
system.cpu0.iq.fu_full::SimdShiftAcc                0      0.00%     20.01% # attempts to use FU when none available
system.cpu0.iq.fu_full::SimdDiv                     0      0.00%     20.01% # attempts to use FU when none available
system.cpu0.iq.fu_full::SimdSqrt                    0      0.00%     20.01% # attempts to use FU when none available
system.cpu0.iq.fu_full::SimdFloatAdd                0      0.00%     20.01% # attempts to use FU when none available
system.cpu0.iq.fu_full::SimdFloatAlu                0      0.00%     20.01% # attempts to use FU when none available
system.cpu0.iq.fu_full::SimdFloatCmp                0      0.00%     20.01% # attempts to use FU when none available
system.cpu0.iq.fu_full::SimdFloatCvt                0      0.00%     20.01% # attempts to use FU when none available
system.cpu0.iq.fu_full::SimdFloatDiv                0      0.00%     20.01% # attempts to use FU when none available
system.cpu0.iq.fu_full::SimdFloatMisc               0      0.00%     20.01% # attempts to use FU when none available
system.cpu0.iq.fu_full::SimdFloatMult               0      0.00%     20.01% # attempts to use FU when none available
system.cpu0.iq.fu_full::SimdFloatMultAcc            0      0.00%     20.01% # attempts to use FU when none available
system.cpu0.iq.fu_full::SimdFloatSqrt               0      0.00%     20.01% # attempts to use FU when none available
system.cpu0.iq.fu_full::SimdReduceAdd               0      0.00%     20.01% # attempts to use FU when none available
system.cpu0.iq.fu_full::SimdReduceAlu               0      0.00%     20.01% # attempts to use FU when none available
system.cpu0.iq.fu_full::SimdReduceCmp               0      0.00%     20.01% # attempts to use FU when none available
system.cpu0.iq.fu_full::SimdFloatReduceAdd            0      0.00%     20.01% # attempts to use FU when none available
system.cpu0.iq.fu_full::SimdFloatReduceCmp            0      0.00%     20.01% # attempts to use FU when none available
system.cpu0.iq.fu_full::SimdAes                     0      0.00%     20.01% # attempts to use FU when none available
system.cpu0.iq.fu_full::SimdAesMix                  0      0.00%     20.01% # attempts to use FU when none available
system.cpu0.iq.fu_full::SimdSha1Hash                0      0.00%     20.01% # attempts to use FU when none available
system.cpu0.iq.fu_full::SimdSha1Hash2               0      0.00%     20.01% # attempts to use FU when none available
system.cpu0.iq.fu_full::SimdSha256Hash              0      0.00%     20.01% # attempts to use FU when none available
system.cpu0.iq.fu_full::SimdSha256Hash2             0      0.00%     20.01% # attempts to use FU when none available
system.cpu0.iq.fu_full::SimdShaSigma2               0      0.00%     20.01% # attempts to use FU when none available
system.cpu0.iq.fu_full::SimdShaSigma3               0      0.00%     20.01% # attempts to use FU when none available
system.cpu0.iq.fu_full::SimdPredAlu                 0      0.00%     20.01% # attempts to use FU when none available
system.cpu0.iq.fu_full::MemRead               1645429     68.93%     88.94% # attempts to use FU when none available
system.cpu0.iq.fu_full::MemWrite               264008     11.06%    100.00% # attempts to use FU when none available
system.cpu0.iq.fu_full::FloatMemRead                0      0.00%    100.00% # attempts to use FU when none available
system.cpu0.iq.fu_full::FloatMemWrite               3      0.00%    100.00% # attempts to use FU when none available
system.cpu0.iq.fu_full::IprAccess                   0      0.00%    100.00% # attempts to use FU when none available
system.cpu0.iq.fu_full::InstPrefetch                0      0.00%    100.00% # attempts to use FU when none available
system.cpu0.iq.int_alu_accesses            1153360244                       # Number of integer alu accesses
system.cpu0.iq.int_inst_queue_reads        4209361374                       # Number of integer instruction queue reads
system.cpu0.iq.int_inst_queue_wakeup_accesses   1136173951                       # Number of integer instruction queue wakeup accesses
system.cpu0.iq.int_inst_queue_writes       1264070001                       # Number of integer instruction queue writes
system.cpu0.iq.iqInstsAdded                1152911861                       # Number of instructions added to the IQ (excludes non-spec)
system.cpu0.iq.iqInstsIssued               1154600131                       # Number of instructions issued
system.cpu0.iq.iqNonSpecInstsAdded            5442349                       # Number of non-speculative instructions added to the IQ
system.cpu0.iq.iqSquashedInstsExamined      105701951                       # Number of squashed instructions iterated over during squash; mainly for profiling
system.cpu0.iq.iqSquashedInstsIssued           143455                       # Number of squashed instructions issued
system.cpu0.iq.iqSquashedNonSpecRemoved           943                       # Number of squashed non-spec instructions that were removed
system.cpu0.iq.iqSquashedOperandsExamined     22408729                       # Number of squashed operands that are examined and possibly removed from graph
system.cpu0.iq.issued_per_cycle::samples   1897630753                       # Number of insts issued each cycle
system.cpu0.iq.issued_per_cycle::mean        0.608443                       # Number of insts issued each cycle
system.cpu0.iq.issued_per_cycle::stdev       0.820106                       # Number of insts issued each cycle
system.cpu0.iq.issued_per_cycle::underflows            0      0.00%      0.00% # Number of insts issued each cycle
system.cpu0.iq.issued_per_cycle::0         1063297005     56.03%     56.03% # Number of insts issued each cycle
system.cpu0.iq.issued_per_cycle::1          580006694     30.56%     86.60% # Number of insts issued each cycle
system.cpu0.iq.issued_per_cycle::2          205810807     10.85%     97.44% # Number of insts issued each cycle
system.cpu0.iq.issued_per_cycle::3           37072631      1.95%     99.40% # Number of insts issued each cycle
system.cpu0.iq.issued_per_cycle::4            7233705      0.38%     99.78% # Number of insts issued each cycle
system.cpu0.iq.issued_per_cycle::5            3005574      0.16%     99.94% # Number of insts issued each cycle
system.cpu0.iq.issued_per_cycle::6             799307      0.04%     99.98% # Number of insts issued each cycle
system.cpu0.iq.issued_per_cycle::7             244842      0.01%     99.99% # Number of insts issued each cycle
system.cpu0.iq.issued_per_cycle::8             160188      0.01%    100.00% # Number of insts issued each cycle
system.cpu0.iq.issued_per_cycle::overflows            0      0.00%    100.00% # Number of insts issued each cycle
system.cpu0.iq.issued_per_cycle::min_value            0                       # Number of insts issued each cycle
system.cpu0.iq.issued_per_cycle::max_value            8                       # Number of insts issued each cycle
system.cpu0.iq.issued_per_cycle::total     1897630753                       # Number of insts issued each cycle
system.cpu0.iq.rate                          0.550510                       # Inst issue rate
system.cpu0.iq.vec_alu_accesses                     0                       # Number of vector alu accesses
system.cpu0.iq.vec_inst_queue_reads                 0                       # Number of vector instruction queue reads
system.cpu0.iq.vec_inst_queue_wakeup_accesses            0                       # Number of vector instruction queue wakeup accesses
system.cpu0.iq.vec_inst_queue_writes                0                       # Number of vector instruction queue writes
system.cpu0.itb.accesses                            0                       # DTB accesses
system.cpu0.itb.hits                                0                       # DTB hits
system.cpu0.itb.misses                              0                       # DTB misses
system.cpu0.itb.read_accesses                       0                       # DTB read accesses
system.cpu0.itb.read_hits                           0                       # DTB read hits
system.cpu0.itb.read_misses                         0                       # DTB read misses
system.cpu0.itb.write_accesses                      0                       # DTB write accesses
system.cpu0.itb.write_hits                          0                       # DTB write hits
system.cpu0.itb.write_misses                        0                       # DTB write misses
system.cpu0.memDep0.conflictingLoads         16921624                       # Number of conflicting loads.
system.cpu0.memDep0.conflictingStores         3439307                       # Number of conflicting stores.
system.cpu0.memDep0.insertedLoads           370767860                       # Number of loads inserted to the mem dependence unit.
system.cpu0.memDep0.insertedStores          144568932                       # Number of stores inserted to the mem dependence unit.
system.cpu0.misc_regfile_reads                   1517                       # number of misc regfile reads
system.cpu0.misc_regfile_writes                    30                       # number of misc regfile writes
system.cpu0.numCycles                      2097326389                       # number of cpu cycles simulated
system.cpu0.numWorkItemsCompleted                   0                       # number of work items this cpu completed
system.cpu0.numWorkItemsStarted                     0                       # number of work items this cpu started
system.cpu0.quiesceCycles                     4868353                       # Total number of cycles that CPU has spent quiesced or waiting for an interrupt
system.cpu0.rename.BlockCycles              314171325                       # Number of cycles rename is blocking
system.cpu0.rename.CommittedMaps            670670098                       # Number of HB maps that are committed
system.cpu0.rename.IQFullEvents              12585571                       # Number of times rename has blocked due to IQ full
system.cpu0.rename.IdleCycles               709207240                       # Number of cycles rename is idle
system.cpu0.rename.LQFullEvents              17322487                       # Number of times rename has blocked due to LQ full
system.cpu0.rename.ROBFullEvents                40531                       # Number of times rename has blocked due to ROB full
system.cpu0.rename.RenameLookups           1427581817                       # Number of register rename lookups that rename has made
system.cpu0.rename.RenamedInsts            1169430723                       # Number of instructions processed by rename
system.cpu0.rename.RenamedOperands          752125345                       # Number of destination operands rename has renamed
system.cpu0.rename.RunCycles                817144090                       # Number of cycles rename is running
system.cpu0.rename.SQFullEvents              18976874                       # Number of times rename has blocked due to SQ full
system.cpu0.rename.SquashCycles               7630560                       # Number of cycles rename is squashing
system.cpu0.rename.UnblockCycles             49162593                       # Number of cycles rename is unblocking
system.cpu0.rename.UndoneMaps                81455242                       # Number of HB maps that are undone due to squashing
system.cpu0.rename.fp_rename_lookups               57                       # Number of floating rename lookups
system.cpu0.rename.int_rename_lookups      1427581760                       # Number of integer rename lookups
system.cpu0.rename.serializeStallCycles        314945                       # count of cycles rename stalled for serializing inst
system.cpu0.rename.serializingInsts              4720                       # count of serializing insts renamed
system.cpu0.rename.skidInsts                 26759071                       # count of insts added to the skid buffer
system.cpu0.rename.tempSerializingInsts          4718                       # count of temporary serializing insts renamed
system.cpu0.rob.rob_reads                  3002906180                       # The number of ROB reads
system.cpu0.rob.rob_writes                 2334662379                       # The number of ROB writes
system.cpu0.timesIdled                       21681990                       # Number of times that the entire CPU went into an idle state and unscheduled itself
system.cpu0.workload.numSyscalls                 1473                       # Number of system calls
system.cpu1.branchPred.BTBCorrect                   0                       # Number of correct BTB predictions (this stat may not work properly.
system.cpu1.branchPred.BTBHitPct            95.423533                       # BTB Hit Percentage
system.cpu1.branchPred.BTBHits                9676974                       # Number of BTB hits
system.cpu1.branchPred.BTBLookups            10141077                       # Number of BTB lookups
system.cpu1.branchPred.RASInCorrect                 0                       # Number of incorrect RAS predictions.
system.cpu1.branchPred.condIncorrect          1843936                       # Number of conditional branches incorrect
system.cpu1.branchPred.condPredicted         18962851                       # Number of conditional branches predicted
system.cpu1.branchPred.indirectHits            310462                       # Number of indirect target hits.
system.cpu1.branchPred.indirectLookups         421049                       # Number of indirect predictor lookups.
system.cpu1.branchPred.indirectMisses          110587                       # Number of indirect misses.
system.cpu1.branchPred.lookups               20608842                       # Number of BP lookups
system.cpu1.branchPred.usedRAS                      0                       # Number of times the RAS was used to get a target.
system.cpu1.branchPredindirectMispredicted         4768                       # Number of mispredicted indirect branches.
system.cpu1.commit.amos                       1811198                       # Number of atomic instructions committed
system.cpu1.commit.branchMispredicts          1087012                       # The number of times a branch was mispredicted
system.cpu1.commit.branches                  12204625                       # Number of branches committed
system.cpu1.commit.bw_lim_events              1402508                       # number cycles where commit BW limit reached
system.cpu1.commit.commitNonSpecStalls        5434267                       # The number of times commit has been forced to stall to communicate backwards
system.cpu1.commit.commitSquashedInsts       22546327                       # The number of squashed insts skipped by commit
system.cpu1.commit.committedInsts            55088153                       # Number of instructions committed
system.cpu1.commit.committedOps              56899527                       # Number of ops (including micro ops) committed
system.cpu1.commit.committed_per_cycle::samples    334797008                       # Number of insts commited each cycle
system.cpu1.commit.committed_per_cycle::mean     0.169952                       # Number of insts commited each cycle
system.cpu1.commit.committed_per_cycle::stdev     0.826902                       # Number of insts commited each cycle
system.cpu1.commit.committed_per_cycle::underflows            0      0.00%      0.00% # Number of insts commited each cycle
system.cpu1.commit.committed_per_cycle::0    311988991     93.19%     93.19% # Number of insts commited each cycle
system.cpu1.commit.committed_per_cycle::1     11113967      3.32%     96.51% # Number of insts commited each cycle
system.cpu1.commit.committed_per_cycle::2      3526079      1.05%     97.56% # Number of insts commited each cycle
system.cpu1.commit.committed_per_cycle::3      3620743      1.08%     98.64% # Number of insts commited each cycle
system.cpu1.commit.committed_per_cycle::4       994365      0.30%     98.94% # Number of insts commited each cycle
system.cpu1.commit.committed_per_cycle::5       337785      0.10%     99.04% # Number of insts commited each cycle
system.cpu1.commit.committed_per_cycle::6      1703266      0.51%     99.55% # Number of insts commited each cycle
system.cpu1.commit.committed_per_cycle::7       109304      0.03%     99.58% # Number of insts commited each cycle
system.cpu1.commit.committed_per_cycle::8      1402508      0.42%    100.00% # Number of insts commited each cycle
system.cpu1.commit.committed_per_cycle::overflows            0      0.00%    100.00% # Number of insts commited each cycle
system.cpu1.commit.committed_per_cycle::min_value            0                       # Number of insts commited each cycle
system.cpu1.commit.committed_per_cycle::max_value            8                       # Number of insts commited each cycle
system.cpu1.commit.committed_per_cycle::total    334797008                       # Number of insts commited each cycle
system.cpu1.commit.fp_insts                        12                       # Number of committed floating point instructions.
system.cpu1.commit.function_calls              502820                       # Number of function calls committed.
system.cpu1.commit.int_insts                 52985179                       # Number of committed integer instructions.
system.cpu1.commit.loads                     16127689                       # Number of loads committed
system.cpu1.commit.membars                    3622523                       # Number of memory barriers committed
system.cpu1.commit.op_class_0::No_OpClass      3622523      6.37%      6.37% # Class of committed instruction
system.cpu1.commit.op_class_0::IntAlu        32018921     56.27%     62.64% # Class of committed instruction
system.cpu1.commit.op_class_0::IntMult             43      0.00%     62.64% # Class of committed instruction
system.cpu1.commit.op_class_0::IntDiv              86      0.00%     62.64% # Class of committed instruction
system.cpu1.commit.op_class_0::FloatAdd             0      0.00%     62.64% # Class of committed instruction
system.cpu1.commit.op_class_0::FloatCmp             0      0.00%     62.64% # Class of committed instruction
system.cpu1.commit.op_class_0::FloatCvt             0      0.00%     62.64% # Class of committed instruction
system.cpu1.commit.op_class_0::FloatMult            0      0.00%     62.64% # Class of committed instruction
system.cpu1.commit.op_class_0::FloatMultAcc            0      0.00%     62.64% # Class of committed instruction
system.cpu1.commit.op_class_0::FloatDiv             0      0.00%     62.64% # Class of committed instruction
system.cpu1.commit.op_class_0::FloatMisc            0      0.00%     62.64% # Class of committed instruction
system.cpu1.commit.op_class_0::FloatSqrt            0      0.00%     62.64% # Class of committed instruction
system.cpu1.commit.op_class_0::SimdAdd              0      0.00%     62.64% # Class of committed instruction
system.cpu1.commit.op_class_0::SimdAddAcc            0      0.00%     62.64% # Class of committed instruction
system.cpu1.commit.op_class_0::SimdAlu              0      0.00%     62.64% # Class of committed instruction
system.cpu1.commit.op_class_0::SimdCmp              0      0.00%     62.64% # Class of committed instruction
system.cpu1.commit.op_class_0::SimdCvt              0      0.00%     62.64% # Class of committed instruction
system.cpu1.commit.op_class_0::SimdMisc             0      0.00%     62.64% # Class of committed instruction
system.cpu1.commit.op_class_0::SimdMult             0      0.00%     62.64% # Class of committed instruction
system.cpu1.commit.op_class_0::SimdMultAcc            0      0.00%     62.64% # Class of committed instruction
system.cpu1.commit.op_class_0::SimdShift            0      0.00%     62.64% # Class of committed instruction
system.cpu1.commit.op_class_0::SimdShiftAcc            0      0.00%     62.64% # Class of committed instruction
system.cpu1.commit.op_class_0::SimdDiv              0      0.00%     62.64% # Class of committed instruction
system.cpu1.commit.op_class_0::SimdSqrt             0      0.00%     62.64% # Class of committed instruction
system.cpu1.commit.op_class_0::SimdFloatAdd            0      0.00%     62.64% # Class of committed instruction
system.cpu1.commit.op_class_0::SimdFloatAlu            0      0.00%     62.64% # Class of committed instruction
system.cpu1.commit.op_class_0::SimdFloatCmp            0      0.00%     62.64% # Class of committed instruction
system.cpu1.commit.op_class_0::SimdFloatCvt            0      0.00%     62.64% # Class of committed instruction
system.cpu1.commit.op_class_0::SimdFloatDiv            0      0.00%     62.64% # Class of committed instruction
system.cpu1.commit.op_class_0::SimdFloatMisc            0      0.00%     62.64% # Class of committed instruction
system.cpu1.commit.op_class_0::SimdFloatMult            0      0.00%     62.64% # Class of committed instruction
system.cpu1.commit.op_class_0::SimdFloatMultAcc            0      0.00%     62.64% # Class of committed instruction
system.cpu1.commit.op_class_0::SimdFloatSqrt            0      0.00%     62.64% # Class of committed instruction
system.cpu1.commit.op_class_0::SimdReduceAdd            0      0.00%     62.64% # Class of committed instruction
system.cpu1.commit.op_class_0::SimdReduceAlu            0      0.00%     62.64% # Class of committed instruction
system.cpu1.commit.op_class_0::SimdReduceCmp            0      0.00%     62.64% # Class of committed instruction
system.cpu1.commit.op_class_0::SimdFloatReduceAdd            0      0.00%     62.64% # Class of committed instruction
system.cpu1.commit.op_class_0::SimdFloatReduceCmp            0      0.00%     62.64% # Class of committed instruction
system.cpu1.commit.op_class_0::SimdAes              0      0.00%     62.64% # Class of committed instruction
system.cpu1.commit.op_class_0::SimdAesMix            0      0.00%     62.64% # Class of committed instruction
system.cpu1.commit.op_class_0::SimdSha1Hash            0      0.00%     62.64% # Class of committed instruction
system.cpu1.commit.op_class_0::SimdSha1Hash2            0      0.00%     62.64% # Class of committed instruction
system.cpu1.commit.op_class_0::SimdSha256Hash            0      0.00%     62.64% # Class of committed instruction
system.cpu1.commit.op_class_0::SimdSha256Hash2            0      0.00%     62.64% # Class of committed instruction
system.cpu1.commit.op_class_0::SimdShaSigma2            0      0.00%     62.64% # Class of committed instruction
system.cpu1.commit.op_class_0::SimdShaSigma3            0      0.00%     62.64% # Class of committed instruction
system.cpu1.commit.op_class_0::SimdPredAlu            0      0.00%     62.64% # Class of committed instruction
system.cpu1.commit.op_class_0::MemRead       17938887     31.53%     94.17% # Class of committed instruction
system.cpu1.commit.op_class_0::MemWrite       3319055      5.83%    100.00% # Class of committed instruction
system.cpu1.commit.op_class_0::FloatMemRead            0      0.00%    100.00% # Class of committed instruction
system.cpu1.commit.op_class_0::FloatMemWrite           12      0.00%    100.00% # Class of committed instruction
system.cpu1.commit.op_class_0::IprAccess            0      0.00%    100.00% # Class of committed instruction
system.cpu1.commit.op_class_0::InstPrefetch            0      0.00%    100.00% # Class of committed instruction
system.cpu1.commit.op_class_0::total         56899527                       # Class of committed instruction
system.cpu1.commit.refs                      21257954                       # Number of memory references committed
system.cpu1.commit.swp_count                        0                       # Number of s/w prefetches committed
system.cpu1.commit.vec_insts                        0                       # Number of committed Vector instructions.
system.cpu1.committedInsts                   55088153                       # Number of Instructions Simulated
system.cpu1.committedOps                     56899527                       # Number of Ops (including micro ops) Simulated
system.cpu1.cpi                              6.149091                       # CPI: Cycles Per Instruction
system.cpu1.cpi_total                        6.149091                       # CPI: Total CPI of All Threads
system.cpu1.decode.BlockedCycles            294957891                       # Number of cycles decode is blocked
system.cpu1.decode.BranchMispred               762826                       # Number of times decode detected a branch misprediction
system.cpu1.decode.BranchResolved             8696343                       # Number of times decode resolved a branch
system.cpu1.decode.DecodedInsts              86948974                       # Number of instructions handled by decode
system.cpu1.decode.IdleCycles                10432906                       # Number of cycles decode is idle
system.cpu1.decode.RunCycles                 27051633                       # Number of cycles decode is running
system.cpu1.decode.SquashCycles               1087717                       # Number of cycles decode is squashing
system.cpu1.decode.SquashedInsts              1108303                       # Number of squashed instructions handled by decode
system.cpu1.decode.UnblockCycles              4843689                       # Number of cycles decode is unblocking
system.cpu1.dtb.accesses                            0                       # DTB accesses
system.cpu1.dtb.hits                                0                       # DTB hits
system.cpu1.dtb.misses                              0                       # DTB misses
system.cpu1.dtb.read_accesses                       0                       # DTB read accesses
system.cpu1.dtb.read_hits                           0                       # DTB read hits
system.cpu1.dtb.read_misses                         0                       # DTB read misses
system.cpu1.dtb.write_accesses                      0                       # DTB write accesses
system.cpu1.dtb.write_hits                          0                       # DTB write hits
system.cpu1.dtb.write_misses                        0                       # DTB write misses
system.cpu1.fetch.Branches                   20608842                       # Number of branches that fetch encountered
system.cpu1.fetch.CacheLines                  9176998                       # Number of cache lines fetched
system.cpu1.fetch.Cycles                    326107166                       # Number of cycles fetch has run and was not squashing or blocked
system.cpu1.fetch.IcacheSquashes                81479                       # Number of outstanding Icache misses that were squashed
system.cpu1.fetch.IcacheWaitRetryStallCycles           28                       # Number of stall cycles due to full MSHR
system.cpu1.fetch.Insts                     100800115                       # Number of instructions fetch has processed
system.cpu1.fetch.MiscStallCycles                   2                       # Number of cycles fetch has spent waiting on interrupts, or bad addresses, or out of MSHRs
system.cpu1.fetch.SquashCycles                3689282                       # Number of cycles fetch has spent squashing
system.cpu1.fetch.branchRate                 0.060839                       # Number of branch fetches per cycle
system.cpu1.fetch.icacheStallCycles          10421999                       # Number of cycles fetch is stalled on an Icache miss
system.cpu1.fetch.predictedBranches           9987436                       # Number of branches that fetch has predicted taken
system.cpu1.fetch.rate                       0.297572                       # Number of inst fetches per cycle
system.cpu1.fetch.rateDist::samples         338373836                       # Number of instructions fetched each cycle (Total)
system.cpu1.fetch.rateDist::mean             0.309667                       # Number of instructions fetched each cycle (Total)
system.cpu1.fetch.rateDist::stdev            0.819049                       # Number of instructions fetched each cycle (Total)
system.cpu1.fetch.rateDist::underflows              0      0.00%      0.00% # Number of instructions fetched each cycle (Total)
system.cpu1.fetch.rateDist::0               280128001     82.79%     82.79% # Number of instructions fetched each cycle (Total)
system.cpu1.fetch.rateDist::1                30466042      9.00%     91.79% # Number of instructions fetched each cycle (Total)
system.cpu1.fetch.rateDist::2                16783826      4.96%     96.75% # Number of instructions fetched each cycle (Total)
system.cpu1.fetch.rateDist::3                 6594050      1.95%     98.70% # Number of instructions fetched each cycle (Total)
system.cpu1.fetch.rateDist::4                 1946082      0.58%     99.27% # Number of instructions fetched each cycle (Total)
system.cpu1.fetch.rateDist::5                 1559049      0.46%     99.73% # Number of instructions fetched each cycle (Total)
system.cpu1.fetch.rateDist::6                  893253      0.26%    100.00% # Number of instructions fetched each cycle (Total)
system.cpu1.fetch.rateDist::7                     114      0.00%    100.00% # Number of instructions fetched each cycle (Total)
system.cpu1.fetch.rateDist::8                    3419      0.00%    100.00% # Number of instructions fetched each cycle (Total)
system.cpu1.fetch.rateDist::overflows               0      0.00%    100.00% # Number of instructions fetched each cycle (Total)
system.cpu1.fetch.rateDist::min_value               0                       # Number of instructions fetched each cycle (Total)
system.cpu1.fetch.rateDist::max_value               8                       # Number of instructions fetched each cycle (Total)
system.cpu1.fetch.rateDist::total           338373836                       # Number of instructions fetched each cycle (Total)
system.cpu1.fp_regfile_reads                       12                       # number of floating regfile reads
system.cpu1.idleCycles                         368252                       # Total number of cycles that the CPU has spent unscheduled due to idling
system.cpu1.iew.branchMispredicts             1155986                       # Number of branch mispredicts detected at execute
system.cpu1.iew.exec_branches                14864798                       # Number of branches executed
system.cpu1.iew.exec_nop                            0                       # number of nop insts executed
system.cpu1.iew.exec_rate                    0.191536                       # Inst execution rate
system.cpu1.iew.exec_refs                    22656965                       # number of memory reference insts executed
system.cpu1.iew.exec_stores                   5222998                       # Number of stores executed
system.cpu1.iew.exec_swp                            0                       # number of swp insts executed
system.cpu1.iew.iewBlockCycles              250206940                       # Number of cycles IEW is blocking
system.cpu1.iew.iewDispLoadInsts             22525247                       # Number of dispatched load instructions
system.cpu1.iew.iewDispNonSpecInsts           2719770                       # Number of dispatched non-speculative instructions
system.cpu1.iew.iewDispSquashedInsts          2072768                       # Number of squashed instructions skipped by dispatch
system.cpu1.iew.iewDispStoreInsts             7140460                       # Number of dispatched store instructions
system.cpu1.iew.iewDispatchedInsts           79438410                       # Number of instructions dispatched to IQ
system.cpu1.iew.iewExecLoadInsts             17433967                       # Number of load instructions executed
system.cpu1.iew.iewExecSquashedInsts           733906                       # Number of squashed instructions skipped in execute
system.cpu1.iew.iewExecutedInsts             64881190                       # Number of executed instructions
system.cpu1.iew.iewIQFullEvents               1941086                       # Number of times the IQ has become full, causing a stall
system.cpu1.iew.iewIdleCycles                       0                       # Number of cycles IEW is idle
system.cpu1.iew.iewLSQFullEvents              1870555                       # Number of times the LSQ has become full, causing a stall
system.cpu1.iew.iewSquashCycles               1087717                       # Number of cycles IEW is squashing
system.cpu1.iew.iewUnblockCycles              5592883                       # Number of cycles IEW is unblocking
system.cpu1.iew.lsq.thread0.blockedLoads            0                       # Number of blocked loads due to partial load-store forwarding
system.cpu1.iew.lsq.thread0.cacheBlocked        35455                       # Number of times an access to memory failed due to the cache being blocked
system.cpu1.iew.lsq.thread0.forwLoads          343916                       # Number of loads that had data forwarded from stores
system.cpu1.iew.lsq.thread0.ignoredResponses         9387                       # Number of memory responses ignored because the instruction is squashed
system.cpu1.iew.lsq.thread0.invAddrLoads            0                       # Number of loads ignored due to an invalid address
system.cpu1.iew.lsq.thread0.invAddrSwpfs            0                       # Number of software prefetches ignored due to an invalid address
system.cpu1.iew.lsq.thread0.memOrderViolation          815                       # Number of memory ordering violations
system.cpu1.iew.lsq.thread0.rescheduledLoads         3166                       # Number of loads that were rescheduled
system.cpu1.iew.lsq.thread0.squashedLoads      6397558                       # Number of loads squashed
system.cpu1.iew.lsq.thread0.squashedStores      2010195                       # Number of stores squashed
system.cpu1.iew.memOrderViolationEvents           815                       # Number of memory order violations
system.cpu1.iew.predictedNotTakenIncorrect       209395                       # Number of branches that were predicted not taken incorrectly
system.cpu1.iew.predictedTakenIncorrect        946591                       # Number of branches that were predicted taken incorrectly
system.cpu1.iew.wb_consumers                 38409185                       # num instructions consuming a value
system.cpu1.iew.wb_count                     64362532                       # cumulative count of insts written-back
system.cpu1.iew.wb_fanout                    0.838832                       # average fanout of values written-back
system.cpu1.iew.wb_producers                 32218835                       # num instructions producing a value
system.cpu1.iew.wb_rate                      0.190005                       # insts written-back per cycle
system.cpu1.iew.wb_sent                      64381164                       # cumulative count of insts sent to commit
system.cpu1.int_regfile_reads                81027811                       # number of integer regfile reads
system.cpu1.int_regfile_writes               42765922                       # number of integer regfile writes
system.cpu1.ipc                              0.162626                       # IPC: Instructions Per Cycle
system.cpu1.ipc_total                        0.162626                       # IPC: Total IPC of All Threads
system.cpu1.iq.FU_type_0::No_OpClass          3622627      5.52%      5.52% # Type of FU issued
system.cpu1.iq.FU_type_0::IntAlu             39186918     59.72%     65.24% # Type of FU issued
system.cpu1.iq.FU_type_0::IntMult                  47      0.00%     65.24% # Type of FU issued
system.cpu1.iq.FU_type_0::IntDiv                   88      0.00%     65.24% # Type of FU issued
system.cpu1.iq.FU_type_0::FloatAdd                  0      0.00%     65.24% # Type of FU issued
system.cpu1.iq.FU_type_0::FloatCmp                  0      0.00%     65.24% # Type of FU issued
system.cpu1.iq.FU_type_0::FloatCvt                  0      0.00%     65.24% # Type of FU issued
system.cpu1.iq.FU_type_0::FloatMult                 0      0.00%     65.24% # Type of FU issued
system.cpu1.iq.FU_type_0::FloatMultAcc              0      0.00%     65.24% # Type of FU issued
system.cpu1.iq.FU_type_0::FloatDiv                  0      0.00%     65.24% # Type of FU issued
system.cpu1.iq.FU_type_0::FloatMisc                 0      0.00%     65.24% # Type of FU issued
system.cpu1.iq.FU_type_0::FloatSqrt                 0      0.00%     65.24% # Type of FU issued
system.cpu1.iq.FU_type_0::SimdAdd                   0      0.00%     65.24% # Type of FU issued
system.cpu1.iq.FU_type_0::SimdAddAcc                0      0.00%     65.24% # Type of FU issued
system.cpu1.iq.FU_type_0::SimdAlu                   0      0.00%     65.24% # Type of FU issued
system.cpu1.iq.FU_type_0::SimdCmp                   0      0.00%     65.24% # Type of FU issued
system.cpu1.iq.FU_type_0::SimdCvt                   0      0.00%     65.24% # Type of FU issued
system.cpu1.iq.FU_type_0::SimdMisc                  0      0.00%     65.24% # Type of FU issued
system.cpu1.iq.FU_type_0::SimdMult                  0      0.00%     65.24% # Type of FU issued
system.cpu1.iq.FU_type_0::SimdMultAcc               0      0.00%     65.24% # Type of FU issued
system.cpu1.iq.FU_type_0::SimdShift                 0      0.00%     65.24% # Type of FU issued
system.cpu1.iq.FU_type_0::SimdShiftAcc              0      0.00%     65.24% # Type of FU issued
system.cpu1.iq.FU_type_0::SimdDiv                   0      0.00%     65.24% # Type of FU issued
system.cpu1.iq.FU_type_0::SimdSqrt                  0      0.00%     65.24% # Type of FU issued
system.cpu1.iq.FU_type_0::SimdFloatAdd              0      0.00%     65.24% # Type of FU issued
system.cpu1.iq.FU_type_0::SimdFloatAlu              0      0.00%     65.24% # Type of FU issued
system.cpu1.iq.FU_type_0::SimdFloatCmp              0      0.00%     65.24% # Type of FU issued
system.cpu1.iq.FU_type_0::SimdFloatCvt              0      0.00%     65.24% # Type of FU issued
system.cpu1.iq.FU_type_0::SimdFloatDiv              0      0.00%     65.24% # Type of FU issued
system.cpu1.iq.FU_type_0::SimdFloatMisc             0      0.00%     65.24% # Type of FU issued
system.cpu1.iq.FU_type_0::SimdFloatMult             0      0.00%     65.24% # Type of FU issued
system.cpu1.iq.FU_type_0::SimdFloatMultAcc            0      0.00%     65.24% # Type of FU issued
system.cpu1.iq.FU_type_0::SimdFloatSqrt             0      0.00%     65.24% # Type of FU issued
system.cpu1.iq.FU_type_0::SimdReduceAdd             0      0.00%     65.24% # Type of FU issued
system.cpu1.iq.FU_type_0::SimdReduceAlu             0      0.00%     65.24% # Type of FU issued
system.cpu1.iq.FU_type_0::SimdReduceCmp             0      0.00%     65.24% # Type of FU issued
system.cpu1.iq.FU_type_0::SimdFloatReduceAdd            0      0.00%     65.24% # Type of FU issued
system.cpu1.iq.FU_type_0::SimdFloatReduceCmp            0      0.00%     65.24% # Type of FU issued
system.cpu1.iq.FU_type_0::SimdAes                   0      0.00%     65.24% # Type of FU issued
system.cpu1.iq.FU_type_0::SimdAesMix                0      0.00%     65.24% # Type of FU issued
system.cpu1.iq.FU_type_0::SimdSha1Hash              0      0.00%     65.24% # Type of FU issued
system.cpu1.iq.FU_type_0::SimdSha1Hash2             0      0.00%     65.24% # Type of FU issued
system.cpu1.iq.FU_type_0::SimdSha256Hash            0      0.00%     65.24% # Type of FU issued
system.cpu1.iq.FU_type_0::SimdSha256Hash2            0      0.00%     65.24% # Type of FU issued
system.cpu1.iq.FU_type_0::SimdShaSigma2             0      0.00%     65.24% # Type of FU issued
system.cpu1.iq.FU_type_0::SimdShaSigma3             0      0.00%     65.24% # Type of FU issued
system.cpu1.iq.FU_type_0::SimdPredAlu               0      0.00%     65.24% # Type of FU issued
system.cpu1.iq.FU_type_0::MemRead            19380037     29.54%     94.78% # Type of FU issued
system.cpu1.iq.FU_type_0::MemWrite            3425367      5.22%    100.00% # Type of FU issued
system.cpu1.iq.FU_type_0::FloatMemRead              0      0.00%    100.00% # Type of FU issued
system.cpu1.iq.FU_type_0::FloatMemWrite            12      0.00%    100.00% # Type of FU issued
system.cpu1.iq.FU_type_0::IprAccess                 0      0.00%    100.00% # Type of FU issued
system.cpu1.iq.FU_type_0::InstPrefetch              0      0.00%    100.00% # Type of FU issued
system.cpu1.iq.FU_type_0::total              65615096                       # Type of FU issued
system.cpu1.iq.fp_alu_accesses                     15                       # Number of floating point alu accesses
system.cpu1.iq.fp_inst_queue_reads                 27                       # Number of floating instruction queue reads
system.cpu1.iq.fp_inst_queue_wakeup_accesses           12                       # Number of floating instruction queue wakeup accesses
system.cpu1.iq.fp_inst_queue_writes                12                       # Number of floating instruction queue writes
system.cpu1.iq.fu_busy_cnt                    2017986                       # FU busy when requested
system.cpu1.iq.fu_busy_rate                  0.030755                       # FU busy rate (busy events/executed inst)
system.cpu1.iq.fu_full::No_OpClass                  0      0.00%      0.00% # attempts to use FU when none available
system.cpu1.iq.fu_full::IntAlu                 379165     18.79%     18.79% # attempts to use FU when none available
system.cpu1.iq.fu_full::IntMult                     0      0.00%     18.79% # attempts to use FU when none available
system.cpu1.iq.fu_full::IntDiv                      0      0.00%     18.79% # attempts to use FU when none available
system.cpu1.iq.fu_full::FloatAdd                    0      0.00%     18.79% # attempts to use FU when none available
system.cpu1.iq.fu_full::FloatCmp                    0      0.00%     18.79% # attempts to use FU when none available
system.cpu1.iq.fu_full::FloatCvt                    0      0.00%     18.79% # attempts to use FU when none available
system.cpu1.iq.fu_full::FloatMult                   0      0.00%     18.79% # attempts to use FU when none available
system.cpu1.iq.fu_full::FloatMultAcc                0      0.00%     18.79% # attempts to use FU when none available
system.cpu1.iq.fu_full::FloatDiv                    0      0.00%     18.79% # attempts to use FU when none available
system.cpu1.iq.fu_full::FloatMisc                   0      0.00%     18.79% # attempts to use FU when none available
system.cpu1.iq.fu_full::FloatSqrt                   0      0.00%     18.79% # attempts to use FU when none available
system.cpu1.iq.fu_full::SimdAdd                     0      0.00%     18.79% # attempts to use FU when none available
system.cpu1.iq.fu_full::SimdAddAcc                  0      0.00%     18.79% # attempts to use FU when none available
system.cpu1.iq.fu_full::SimdAlu                     0      0.00%     18.79% # attempts to use FU when none available
system.cpu1.iq.fu_full::SimdCmp                     0      0.00%     18.79% # attempts to use FU when none available
system.cpu1.iq.fu_full::SimdCvt                     0      0.00%     18.79% # attempts to use FU when none available
system.cpu1.iq.fu_full::SimdMisc                    0      0.00%     18.79% # attempts to use FU when none available
system.cpu1.iq.fu_full::SimdMult                    0      0.00%     18.79% # attempts to use FU when none available
system.cpu1.iq.fu_full::SimdMultAcc                 0      0.00%     18.79% # attempts to use FU when none available
system.cpu1.iq.fu_full::SimdShift                   0      0.00%     18.79% # attempts to use FU when none available
system.cpu1.iq.fu_full::SimdShiftAcc                0      0.00%     18.79% # attempts to use FU when none available
system.cpu1.iq.fu_full::SimdDiv                     0      0.00%     18.79% # attempts to use FU when none available
system.cpu1.iq.fu_full::SimdSqrt                    0      0.00%     18.79% # attempts to use FU when none available
system.cpu1.iq.fu_full::SimdFloatAdd                0      0.00%     18.79% # attempts to use FU when none available
system.cpu1.iq.fu_full::SimdFloatAlu                0      0.00%     18.79% # attempts to use FU when none available
system.cpu1.iq.fu_full::SimdFloatCmp                0      0.00%     18.79% # attempts to use FU when none available
system.cpu1.iq.fu_full::SimdFloatCvt                0      0.00%     18.79% # attempts to use FU when none available
system.cpu1.iq.fu_full::SimdFloatDiv                0      0.00%     18.79% # attempts to use FU when none available
system.cpu1.iq.fu_full::SimdFloatMisc               0      0.00%     18.79% # attempts to use FU when none available
system.cpu1.iq.fu_full::SimdFloatMult               0      0.00%     18.79% # attempts to use FU when none available
system.cpu1.iq.fu_full::SimdFloatMultAcc            0      0.00%     18.79% # attempts to use FU when none available
system.cpu1.iq.fu_full::SimdFloatSqrt               0      0.00%     18.79% # attempts to use FU when none available
system.cpu1.iq.fu_full::SimdReduceAdd               0      0.00%     18.79% # attempts to use FU when none available
system.cpu1.iq.fu_full::SimdReduceAlu               0      0.00%     18.79% # attempts to use FU when none available
system.cpu1.iq.fu_full::SimdReduceCmp               0      0.00%     18.79% # attempts to use FU when none available
system.cpu1.iq.fu_full::SimdFloatReduceAdd            0      0.00%     18.79% # attempts to use FU when none available
system.cpu1.iq.fu_full::SimdFloatReduceCmp            0      0.00%     18.79% # attempts to use FU when none available
system.cpu1.iq.fu_full::SimdAes                     0      0.00%     18.79% # attempts to use FU when none available
system.cpu1.iq.fu_full::SimdAesMix                  0      0.00%     18.79% # attempts to use FU when none available
system.cpu1.iq.fu_full::SimdSha1Hash                0      0.00%     18.79% # attempts to use FU when none available
system.cpu1.iq.fu_full::SimdSha1Hash2               0      0.00%     18.79% # attempts to use FU when none available
system.cpu1.iq.fu_full::SimdSha256Hash              0      0.00%     18.79% # attempts to use FU when none available
system.cpu1.iq.fu_full::SimdSha256Hash2             0      0.00%     18.79% # attempts to use FU when none available
system.cpu1.iq.fu_full::SimdShaSigma2               0      0.00%     18.79% # attempts to use FU when none available
system.cpu1.iq.fu_full::SimdShaSigma3               0      0.00%     18.79% # attempts to use FU when none available
system.cpu1.iq.fu_full::SimdPredAlu                 0      0.00%     18.79% # attempts to use FU when none available
system.cpu1.iq.fu_full::MemRead               1448852     71.80%     90.59% # attempts to use FU when none available
[...]
system.cpu1.dcache.ReadReq_mshr_hits::total     94260819                       # number of ReadReq MSHR hits
system.cpu1.dcache.ReadReq_mshr_misses::.cpu1.data    124509032                       # number of ReadReq MSHR misses
system.cpu1.dcache.ReadReq_mshr_misses::total    124509032                       # number of ReadReq MSHR misses
system.cpu1.dcache.ReadReq_mshr_miss_latency::.cpu1.data 11226616813000                       # number of ReadReq MSHR miss cycles
system.cpu1.dcache.ReadReq_mshr_miss_latency::total 11226616813000                       # number of ReadReq MSHR miss cycles
system.cpu1.dcache.ReadReq_mshr_miss_rate::.cpu1.data     0.328833                       # mshr miss rate for ReadReq accesses
system.cpu1.dcache.ReadReq_mshr_miss_rate::total     0.328833                       # mshr miss rate for ReadReq accesses
system.cpu1.dcache.ReadReq_avg_mshr_miss_latency::.cpu1.data 90167.087742                       # average ReadReq mshr miss latency
system.cpu1.dcache.ReadReq_avg_mshr_miss_latency::total 90167.087742                       # average ReadReq mshr miss latency
system.cpu1.dcache.WriteReq_hits::.cpu1.data     18174410                       # number of WriteReq hits
system.cpu1.dcache.WriteReq_hits::total      18174410                       # number of WriteReq hits
system.cpu1.dcache.WriteReq_misses::.cpu1.data      7629132                       # number of WriteReq misses
system.cpu1.dcache.WriteReq_misses::total      7629132                       # number of WriteReq misses
system.cpu1.dcache.WriteReq_miss_latency::.cpu1.data 345737438179                       # number of WriteReq miss cycles
system.cpu1.dcache.WriteReq_miss_latency::total 345737438179                       # number of WriteReq miss cycles
system.cpu1.dcache.WriteReq_accesses::.cpu1.data     25803542                       # number of WriteReq accesses(hits+misses)
system.cpu1.dcache.WriteReq_accesses::total     25803542                       # number of WriteReq accesses(hits+misses)
system.cpu1.dcache.WriteReq_miss_rate::.cpu1.data     0.295662                       # miss rate for WriteReq accesses
system.cpu1.dcache.WriteReq_miss_rate::total     0.295662                       # miss rate for WriteReq accesses
system.cpu1.dcache.WriteReq_avg_miss_latency::.cpu1.data 45318.056914                       # average WriteReq miss latency
system.cpu1.dcache.WriteReq_avg_miss_latency::total 45318.056914                       # average WriteReq miss latency
system.cpu1.dcache.WriteReq_mshr_hits::.cpu1.data      6052582                       # number of WriteReq MSHR hits
system.cpu1.dcache.WriteReq_mshr_hits::total      6052582                       # number of WriteReq MSHR hits
system.cpu1.dcache.WriteReq_mshr_misses::.cpu1.data      1576550                       # number of WriteReq MSHR misses
system.cpu1.dcache.WriteReq_mshr_misses::total      1576550                       # number of WriteReq MSHR misses
system.cpu1.dcache.WriteReq_mshr_miss_latency::.cpu1.data  99267702395                       # number of WriteReq MSHR miss cycles
system.cpu1.dcache.WriteReq_mshr_miss_latency::total  99267702395                       # number of WriteReq MSHR miss cycles
system.cpu1.dcache.WriteReq_mshr_miss_rate::.cpu1.data     0.061098                       # mshr miss rate for WriteReq accesses
system.cpu1.dcache.WriteReq_mshr_miss_rate::total     0.061098                       # mshr miss rate for WriteReq accesses
system.cpu1.dcache.WriteReq_avg_mshr_miss_latency::.cpu1.data 62965.146932                       # average WriteReq mshr miss latency
system.cpu1.dcache.WriteReq_avg_mshr_miss_latency::total 62965.146932                       # average WriteReq mshr miss latency
system.cpu1.dcache.LoadLockedReq_hits::.cpu1.data         6779                       # number of LoadLockedReq hits
system.cpu1.dcache.LoadLockedReq_hits::total         6779                       # number of LoadLockedReq hits
system.cpu1.dcache.LoadLockedReq_misses::.cpu1.data         1650                       # number of LoadLockedReq misses
system.cpu1.dcache.LoadLockedReq_misses::total         1650                       # number of LoadLockedReq misses
system.cpu1.dcache.LoadLockedReq_miss_latency::.cpu1.data     78923000                       # number of LoadLockedReq miss cycles
system.cpu1.dcache.LoadLockedReq_miss_latency::total     78923000                       # number of LoadLockedReq miss cycles
system.cpu1.dcache.LoadLockedReq_accesses::.cpu1.data         8429                       # number of LoadLockedReq accesses(hits+misses)
system.cpu1.dcache.LoadLockedReq_accesses::total         8429                       # number of LoadLockedReq accesses(hits+misses)
system.cpu1.dcache.LoadLockedReq_miss_rate::.cpu1.data     0.195753                       # miss rate for LoadLockedReq accesses
system.cpu1.dcache.LoadLockedReq_miss_rate::total     0.195753                       # miss rate for LoadLockedReq accesses
system.cpu1.dcache.LoadLockedReq_avg_miss_latency::.cpu1.data 47832.121212                       # average LoadLockedReq miss latency
system.cpu1.dcache.LoadLockedReq_avg_miss_latency::total 47832.121212                       # average LoadLockedReq miss latency
system.cpu1.dcache.LoadLockedReq_mshr_hits::.cpu1.data         1481                       # number of LoadLockedReq MSHR hits
system.cpu1.dcache.LoadLockedReq_mshr_hits::total         1481                       # number of LoadLockedReq MSHR hits
system.cpu1.dcache.LoadLockedReq_mshr_misses::.cpu1.data          169                       # number of LoadLockedReq MSHR misses
system.cpu1.dcache.LoadLockedReq_mshr_misses::total          169                       # number of LoadLockedReq MSHR misses
system.cpu1.dcache.LoadLockedReq_mshr_miss_latency::.cpu1.data      1750500                       # number of LoadLockedReq MSHR miss cycles
system.cpu1.dcache.LoadLockedReq_mshr_miss_latency::total      1750500                       # number of LoadLockedReq MSHR miss cycles
system.cpu1.dcache.LoadLockedReq_mshr_miss_rate::.cpu1.data     0.020050                       # mshr miss rate for LoadLockedReq accesses
system.cpu1.dcache.LoadLockedReq_mshr_miss_rate::total     0.020050                       # mshr miss rate for LoadLockedReq accesses
system.cpu1.dcache.LoadLockedReq_avg_mshr_miss_latency::.cpu1.data 10357.988166                       # average LoadLockedReq mshr miss latency
system.cpu1.dcache.LoadLockedReq_avg_mshr_miss_latency::total 10357.988166                       # average LoadLockedReq mshr miss latency
system.cpu1.dcache.StoreCondReq_hits::.cpu1.data         4568                       # number of StoreCondReq hits
system.cpu1.dcache.StoreCondReq_hits::total         4568                       # number of StoreCondReq hits
system.cpu1.dcache.StoreCondReq_misses::.cpu1.data         2726                       # number of StoreCondReq misses
system.cpu1.dcache.StoreCondReq_misses::total         2726                       # number of StoreCondReq misses
system.cpu1.dcache.StoreCondReq_miss_latency::.cpu1.data     16508000                       # number of StoreCondReq miss cycles
system.cpu1.dcache.StoreCondReq_miss_latency::total     16508000                       # number of StoreCondReq miss cycles
system.cpu1.dcache.StoreCondReq_accesses::.cpu1.data         7294                       # number of StoreCondReq accesses(hits+misses)
system.cpu1.dcache.StoreCondReq_accesses::total         7294                       # number of StoreCondReq accesses(hits+misses)
system.cpu1.dcache.StoreCondReq_miss_rate::.cpu1.data     0.373732                       # miss rate for StoreCondReq accesses
system.cpu1.dcache.StoreCondReq_miss_rate::total     0.373732                       # miss rate for StoreCondReq accesses
system.cpu1.dcache.StoreCondReq_avg_miss_latency::.cpu1.data  6055.759354                       # average StoreCondReq miss latency
system.cpu1.dcache.StoreCondReq_avg_miss_latency::total  6055.759354                       # average StoreCondReq miss latency
system.cpu1.dcache.StoreCondReq_mshr_misses::.cpu1.data         2722                       # number of StoreCondReq MSHR misses
system.cpu1.dcache.StoreCondReq_mshr_misses::total         2722                       # number of StoreCondReq MSHR misses
system.cpu1.dcache.StoreCondReq_mshr_miss_latency::.cpu1.data     13786000                       # number of StoreCondReq MSHR miss cycles
system.cpu1.dcache.StoreCondReq_mshr_miss_latency::total     13786000                       # number of StoreCondReq MSHR miss cycles
system.cpu1.dcache.StoreCondReq_mshr_miss_rate::.cpu1.data     0.373183                       # mshr miss rate for StoreCondReq accesses
system.cpu1.dcache.StoreCondReq_mshr_miss_rate::total     0.373183                       # mshr miss rate for StoreCondReq accesses
system.cpu1.dcache.StoreCondReq_avg_mshr_miss_latency::.cpu1.data  5064.658339                       # average StoreCondReq mshr miss latency
system.cpu1.dcache.StoreCondReq_avg_mshr_miss_latency::total  5064.658339                       # average StoreCondReq mshr miss latency
system.cpu1.dcache.SwapReq_hits::.cpu1.data         3943                       # number of SwapReq hits
system.cpu1.dcache.SwapReq_hits::total           3943                       # number of SwapReq hits
system.cpu1.dcache.SwapReq_misses::.cpu1.data       194821                       # number of SwapReq misses
system.cpu1.dcache.SwapReq_misses::total       194821                       # number of SwapReq misses
system.cpu1.dcache.SwapReq_miss_latency::.cpu1.data   6115774500                       # number of SwapReq miss cycles
system.cpu1.dcache.SwapReq_miss_latency::total   6115774500                       # number of SwapReq miss cycles
system.cpu1.dcache.SwapReq_accesses::.cpu1.data       198764                       # number of SwapReq accesses(hits+misses)
system.cpu1.dcache.SwapReq_accesses::total       198764                       # number of SwapReq accesses(hits+misses)
system.cpu1.dcache.SwapReq_miss_rate::.cpu1.data     0.980162                       # miss rate for SwapReq accesses
system.cpu1.dcache.SwapReq_miss_rate::total     0.980162                       # miss rate for SwapReq accesses
system.cpu1.dcache.SwapReq_avg_miss_latency::.cpu1.data 31391.762182                       # average SwapReq miss latency
system.cpu1.dcache.SwapReq_avg_miss_latency::total 31391.762182                       # average SwapReq miss latency
system.cpu1.dcache.SwapReq_mshr_hits::.cpu1.data            1                       # number of SwapReq MSHR hits
system.cpu1.dcache.SwapReq_mshr_hits::total            1                       # number of SwapReq MSHR hits
system.cpu1.dcache.SwapReq_mshr_misses::.cpu1.data       194820                       # number of SwapReq MSHR misses
system.cpu1.dcache.SwapReq_mshr_misses::total       194820                       # number of SwapReq MSHR misses
system.cpu1.dcache.SwapReq_mshr_miss_latency::.cpu1.data   5920953500                       # number of SwapReq MSHR miss cycles
system.cpu1.dcache.SwapReq_mshr_miss_latency::total   5920953500                       # number of SwapReq MSHR miss cycles
system.cpu1.dcache.SwapReq_mshr_miss_rate::.cpu1.data     0.980157                       # mshr miss rate for SwapReq accesses
system.cpu1.dcache.SwapReq_mshr_miss_rate::total     0.980157                       # mshr miss rate for SwapReq accesses
system.cpu1.dcache.SwapReq_avg_mshr_miss_latency::.cpu1.data 30391.918181                       # average SwapReq mshr miss latency
system.cpu1.dcache.SwapReq_avg_mshr_miss_latency::total 30391.918181                       # average SwapReq mshr miss latency
system.cpu1.dcache.tags.pwrStateResidencyTicks::UNDEFINED 3185456697500                       # Cumulative time (in ticks) in various power states
system.cpu1.dcache.tags.tagsinuse           31.960832                       # Cycle average of tags in use
system.cpu1.dcache.tags.total_refs          304425159                       # Total number of references to valid blocks.
system.cpu1.dcache.tags.sampled_refs        126158266                       # Sample count of references to valid blocks.
system.cpu1.dcache.tags.avg_refs             2.413042                       # Average number of references to valid blocks.
system.cpu1.dcache.tags.warmup_cycle                0                       # Cycle when the warmup percentage was hit.
system.cpu1.dcache.tags.occ_blocks::.cpu1.data    31.960832                       # Average occupied blocks per requestor
system.cpu1.dcache.tags.occ_percent::.cpu1.data     0.998776                       # Average percentage of cache occupancy
system.cpu1.dcache.tags.occ_percent::total     0.998776                       # Average percentage of cache occupancy
system.cpu1.dcache.tags.occ_task_id_blocks::1024           28                       # Occupied blocks per task id
system.cpu1.dcache.tags.age_task_id_blocks_1024::1           28                       # Occupied blocks per task id
system.cpu1.dcache.tags.occ_task_id_percent::1024     0.875000                       # Percentage of cache occupancy per task id
system.cpu1.dcache.tags.tag_accesses        935471602                       # Number of tag accesses
system.cpu1.dcache.tags.data_accesses       935471602                       # Number of data accesses
system.cpu_clk_domain.clock                       500                       # Clock period in ticks
system.tol2bus.pwrStateResidencyTicks::UNDEFINED 3185456697500                       # Cumulative time (in ticks) in various power states
system.tol2bus.trans_dist::ReadResp         249369719                       # Transaction distribution
system.tol2bus.trans_dist::WritebackDirty     11596995                       # Transaction distribution
system.tol2bus.trans_dist::WritebackClean    245493961                       # Transaction distribution
system.tol2bus.trans_dist::CleanEvict       505942326                       # Transaction distribution
system.tol2bus.trans_dist::HardPFReq        132178301                       # Transaction distribution
system.tol2bus.trans_dist::HardPFResp             424                       # Transaction distribution
system.tol2bus.trans_dist::UpgradeReq          294959                       # Transaction distribution
system.tol2bus.trans_dist::SCUpgradeReq          4989                       # Transaction distribution
system.tol2bus.trans_dist::UpgradeResp         299948                       # Transaction distribution
system.tol2bus.trans_dist::SCUpgradeFailReq            1                       # Transaction distribution
system.tol2bus.trans_dist::UpgradeFailResp            1                       # Transaction distribution
system.tol2bus.trans_dist::ReadExReq          3330779                       # Transaction distribution
system.tol2bus.trans_dist::ReadExResp         3330779                       # Transaction distribution
system.tol2bus.trans_dist::ReadCleanReq        182861                       # Transaction distribution
system.tol2bus.trans_dist::ReadSharedReq    249186859                       # Transaction distribution
system.tol2bus.pkt_count_system.cpu0.icache.mem_side::system.l2.cpu_side       444376                       # Packet count per connected master and slave (bytes)
system.tol2bus.pkt_count_system.cpu0.dcache.mem_side::system.l2.cpu_side    378814810                       # Packet count per connected master and slave (bytes)
system.tol2bus.pkt_count_system.cpu1.icache.mem_side::system.l2.cpu_side       104205                       # Packet count per connected master and slave (bytes)
system.tol2bus.pkt_count_system.cpu1.dcache.mem_side::system.l2.cpu_side    378203090                       # Packet count per connected master and slave (bytes)
system.tol2bus.pkt_count::total             757566481                       # Packet count per connected master and slave (bytes)
system.tol2bus.pkt_size_system.cpu0.icache.mem_side::system.l2.cpu_side     18960000                       # Cumulative packet size per connected master and slave (bytes)
system.tol2bus.pkt_size_system.cpu0.dcache.mem_side::system.l2.cpu_side  16144697088                       # Cumulative packet size per connected master and slave (bytes)
system.tol2bus.pkt_size_system.cpu1.icache.mem_side::system.l2.cpu_side      4446080                       # Cumulative packet size per connected master and slave (bytes)
system.tol2bus.pkt_size_system.cpu1.dcache.mem_side::system.l2.cpu_side  16118633984                       # Cumulative packet size per connected master and slave (bytes)
system.tol2bus.pkt_size::total            32286737152                       # Cumulative packet size per connected master and slave (bytes)
system.tol2bus.snoops                       643646845                       # Total snoops (count)
system.tol2bus.snoopTraffic                 339970240                       # Total snoop traffic (bytes)
system.tol2bus.snoop_fanout::samples        896160801                       # Request fanout histogram
system.tol2bus.snoop_fanout::mean            0.266015                       # Request fanout histogram
system.tol2bus.snoop_fanout::stdev           0.453103                       # Request fanout histogram
system.tol2bus.snoop_fanout::underflows             0      0.00%      0.00% # Request fanout histogram
system.tol2bus.snoop_fanout::0              662272599     73.90%     73.90% # Request fanout histogram
system.tol2bus.snoop_fanout::1              229384277     25.60%     99.50% # Request fanout histogram
system.tol2bus.snoop_fanout::2                4503925      0.50%    100.00% # Request fanout histogram
system.tol2bus.snoop_fanout::3                      0      0.00%    100.00% # Request fanout histogram
system.tol2bus.snoop_fanout::4                      0      0.00%    100.00% # Request fanout histogram
system.tol2bus.snoop_fanout::5                      0      0.00%    100.00% # Request fanout histogram
system.tol2bus.snoop_fanout::6                      0      0.00%    100.00% # Request fanout histogram
system.tol2bus.snoop_fanout::7                      0      0.00%    100.00% # Request fanout histogram
system.tol2bus.snoop_fanout::8                      0      0.00%    100.00% # Request fanout histogram
system.tol2bus.snoop_fanout::overflows              0      0.00%    100.00% # Request fanout histogram
system.tol2bus.snoop_fanout::min_value              0                       # Request fanout histogram
system.tol2bus.snoop_fanout::max_value              2                       # Request fanout histogram
system.tol2bus.snoop_fanout::total          896160801                       # Request fanout histogram
system.tol2bus.reqLayer0.occupancy       505342651483                       # Layer occupancy (ticks)
system.tol2bus.reqLayer0.utilization             15.9                       # Layer utilization (%)
system.tol2bus.respLayer1.occupancy      189835608159                       # Layer occupancy (ticks)
system.tol2bus.respLayer1.utilization             6.0                       # Layer utilization (%)
system.tol2bus.respLayer0.occupancy         222352661                       # Layer occupancy (ticks)
system.tol2bus.respLayer0.utilization             0.0                       # Layer utilization (%)
system.tol2bus.respLayer3.occupancy      189534106906                       # Layer occupancy (ticks)
system.tol2bus.respLayer3.utilization             5.9                       # Layer utilization (%)
system.tol2bus.respLayer2.occupancy          52391421                       # Layer occupancy (ticks)
system.tol2bus.respLayer2.utilization             0.0                       # Layer utilization (%)
system.tol2bus.snoopLayer0.occupancy           636386                       # Layer occupancy (ticks)
system.tol2bus.snoopLayer0.utilization            0.0                       # Layer utilization (%)

---------- End Simulation Statistics   ----------
