
---------- Begin Simulation Statistics ----------
final_tick                               1338345032500                       # Number of ticks from beginning of simulation (restored from checkpoints and never reset)
host_inst_rate                                  60862                       # Simulator instruction rate (inst/s)
host_mem_usage                                 702376                       # Number of bytes of host memory used
host_op_rate                                    61040                       # Simulator op (including micro ops) rate (op/s)
host_seconds                                 23604.66                       # Real time elapsed on the host
host_tick_rate                               56698341                       # Simulator tick rate (ticks/s)
sim_freq                                 1000000000000                       # Frequency of simulated ticks
sim_insts                                  1436618574                       # Number of instructions simulated
sim_ops                                    1440822321                       # Number of ops (including micro ops) simulated
sim_seconds                                  1.338345                       # Number of seconds simulated
sim_ticks                                1338345032500                       # Number of ticks simulated
system.cpu0.branchPred.BTBCorrect                   0                       # Number of correct BTB predictions (this stat may not work properly.
system.cpu0.branchPred.BTBHitPct            87.571507                       # BTB Hit Percentage
system.cpu0.branchPred.BTBHits              185194915                       # Number of BTB hits
system.cpu0.branchPred.BTBLookups           211478506                       # Number of BTB lookups
system.cpu0.branchPred.RASInCorrect                 0                       # Number of incorrect RAS predictions.
system.cpu0.branchPred.condIncorrect         19917874                       # Number of conditional branches incorrect
system.cpu0.branchPred.condPredicted        275889594                       # Number of conditional branches predicted
system.cpu0.branchPred.indirectHits          21187140                       # Number of indirect target hits.
system.cpu0.branchPred.indirectLookups       22635622                       # Number of indirect predictor lookups.
system.cpu0.branchPred.indirectMisses         1448482                       # Number of indirect misses.
system.cpu0.branchPred.lookups              351877572                       # Number of BP lookups
system.cpu0.branchPred.usedRAS                      0                       # Number of times the RAS was used to get a target.
system.cpu0.branchPredindirectMispredicted      2187731                       # Number of mispredicted indirect branches.
system.cpu0.commit.amos                       2100260                       # Number of atomic instructions committed
system.cpu0.commit.branchMispredicts         10926944                       # The number of times a branch was mispredicted
system.cpu0.commit.branches                 329547924                       # Number of branches committed
system.cpu0.commit.bw_lim_events             32280752                       # number cycles where commit BW limit reached
system.cpu0.commit.commitNonSpecStalls        6309740                       # The number of times commit has been forced to stall to communicate backwards
system.cpu0.commit.commitSquashedInsts       62108485                       # The number of squashed insts skipped by commit
system.cpu0.commit.committedInsts          1316566189                       # Number of instructions committed
system.cpu0.commit.committedOps            1318669768                       # Number of ops (including micro ops) committed
system.cpu0.commit.committed_per_cycle::samples   2370380158                       # Number of insts commited each cycle
system.cpu0.commit.committed_per_cycle::mean     0.556312                       # Number of insts commited each cycle
system.cpu0.commit.committed_per_cycle::stdev     1.264305                       # Number of insts commited each cycle
system.cpu0.commit.committed_per_cycle::underflows            0      0.00%      0.00% # Number of insts commited each cycle
system.cpu0.commit.committed_per_cycle::0   1692428226     71.40%     71.40% # Number of insts commited each cycle
system.cpu0.commit.committed_per_cycle::1    417820274     17.63%     89.03% # Number of insts commited each cycle
system.cpu0.commit.committed_per_cycle::2    102584968      4.33%     93.35% # Number of insts commited each cycle
system.cpu0.commit.committed_per_cycle::3     86782230      3.66%     97.01% # Number of insts commited each cycle
system.cpu0.commit.committed_per_cycle::4     25201052      1.06%     98.08% # Number of insts commited each cycle
system.cpu0.commit.committed_per_cycle::5      5189139      0.22%     98.30% # Number of insts commited each cycle
system.cpu0.commit.committed_per_cycle::6      6317670      0.27%     98.56% # Number of insts commited each cycle
system.cpu0.commit.committed_per_cycle::7      1775847      0.07%     98.64% # Number of insts commited each cycle
system.cpu0.commit.committed_per_cycle::8     32280752      1.36%    100.00% # Number of insts commited each cycle
system.cpu0.commit.committed_per_cycle::overflows            0      0.00%    100.00% # Number of insts commited each cycle
system.cpu0.commit.committed_per_cycle::min_value            0                       # Number of insts commited each cycle
system.cpu0.commit.committed_per_cycle::max_value            8                       # Number of insts commited each cycle
system.cpu0.commit.committed_per_cycle::total   2370380158                       # Number of insts commited each cycle
system.cpu0.commit.fp_insts                        50                       # Number of committed floating point instructions.
system.cpu0.commit.function_calls            25143557                       # Number of function calls committed.
system.cpu0.commit.int_insts               1273937862                       # Number of committed integer instructions.
system.cpu0.commit.loads                    405172098                       # Number of loads committed
system.cpu0.commit.membars                    4203743                       # Number of memory barriers committed
system.cpu0.commit.op_class_0::No_OpClass      4203749      0.32%      0.32% # Class of committed instruction
system.cpu0.commit.op_class_0::IntAlu       742074681     56.27%     56.59% # Class of committed instruction
system.cpu0.commit.op_class_0::IntMult       11833021      0.90%     57.49% # Class of committed instruction
system.cpu0.commit.op_class_0::IntDiv         2099837      0.16%     57.65% # Class of committed instruction
system.cpu0.commit.op_class_0::FloatAdd             0      0.00%     57.65% # Class of committed instruction
system.cpu0.commit.op_class_0::FloatCmp             4      0.00%     57.65% # Class of committed instruction
system.cpu0.commit.op_class_0::FloatCvt            12      0.00%     57.65% # Class of committed instruction
system.cpu0.commit.op_class_0::FloatMult            0      0.00%     57.65% # Class of committed instruction
system.cpu0.commit.op_class_0::FloatMultAcc            0      0.00%     57.65% # Class of committed instruction
system.cpu0.commit.op_class_0::FloatDiv             2      0.00%     57.65% # Class of committed instruction
system.cpu0.commit.op_class_0::FloatMisc            4      0.00%     57.65% # Class of committed instruction
system.cpu0.commit.op_class_0::FloatSqrt            0      0.00%     57.65% # Class of committed instruction
system.cpu0.commit.op_class_0::SimdAdd              0      0.00%     57.65% # Class of committed instruction
system.cpu0.commit.op_class_0::SimdAddAcc            0      0.00%     57.65% # Class of committed instruction
system.cpu0.commit.op_class_0::SimdAlu              0      0.00%     57.65% # Class of committed instruction
system.cpu0.commit.op_class_0::SimdCmp              0      0.00%     57.65% # Class of committed instruction
system.cpu0.commit.op_class_0::SimdCvt              0      0.00%     57.65% # Class of committed instruction
system.cpu0.commit.op_class_0::SimdMisc             0      0.00%     57.65% # Class of committed instruction
system.cpu0.commit.op_class_0::SimdMult             0      0.00%     57.65% # Class of committed instruction
system.cpu0.commit.op_class_0::SimdMultAcc            0      0.00%     57.65% # Class of committed instruction
system.cpu0.commit.op_class_0::SimdShift            0      0.00%     57.65% # Class of committed instruction
system.cpu0.commit.op_class_0::SimdShiftAcc            0      0.00%     57.65% # Class of committed instruction
system.cpu0.commit.op_class_0::SimdDiv              0      0.00%     57.65% # Class of committed instruction
system.cpu0.commit.op_class_0::SimdSqrt             0      0.00%     57.65% # Class of committed instruction
system.cpu0.commit.op_class_0::SimdFloatAdd            0      0.00%     57.65% # Class of committed instruction
system.cpu0.commit.op_class_0::SimdFloatAlu            0      0.00%     57.65% # Class of committed instruction
system.cpu0.commit.op_class_0::SimdFloatCmp            0      0.00%     57.65% # Class of committed instruction
system.cpu0.commit.op_class_0::SimdFloatCvt            0      0.00%     57.65% # Class of committed instruction
system.cpu0.commit.op_class_0::SimdFloatDiv            0      0.00%     57.65% # Class of committed instruction
system.cpu0.commit.op_class_0::SimdFloatMisc            0      0.00%     57.65% # Class of committed instruction
system.cpu0.commit.op_class_0::SimdFloatMult            0      0.00%     57.65% # Class of committed instruction
system.cpu0.commit.op_class_0::SimdFloatMultAcc            0      0.00%     57.65% # Class of committed instruction
system.cpu0.commit.op_class_0::SimdFloatSqrt            0      0.00%     57.65% # Class of committed instruction
system.cpu0.commit.op_class_0::SimdReduceAdd            0      0.00%     57.65% # Class of committed instruction
system.cpu0.commit.op_class_0::SimdReduceAlu            0      0.00%     57.65% # Class of committed instruction
system.cpu0.commit.op_class_0::SimdReduceCmp            0      0.00%     57.65% # Class of committed instruction
system.cpu0.commit.op_class_0::SimdFloatReduceAdd            0      0.00%     57.65% # Class of committed instruction
system.cpu0.commit.op_class_0::SimdFloatReduceCmp            0      0.00%     57.65% # Class of committed instruction
system.cpu0.commit.op_class_0::SimdAes              0      0.00%     57.65% # Class of committed instruction
system.cpu0.commit.op_class_0::SimdAesMix            0      0.00%     57.65% # Class of committed instruction
system.cpu0.commit.op_class_0::SimdSha1Hash            0      0.00%     57.65% # Class of committed instruction
system.cpu0.commit.op_class_0::SimdSha1Hash2            0      0.00%     57.65% # Class of committed instruction
system.cpu0.commit.op_class_0::SimdSha256Hash            0      0.00%     57.65% # Class of committed instruction
system.cpu0.commit.op_class_0::SimdSha256Hash2            0      0.00%     57.65% # Class of committed instruction
system.cpu0.commit.op_class_0::SimdShaSigma2            0      0.00%     57.65% # Class of committed instruction
system.cpu0.commit.op_class_0::SimdShaSigma3            0      0.00%     57.65% # Class of committed instruction
system.cpu0.commit.op_class_0::SimdPredAlu            0      0.00%     57.65% # Class of committed instruction
system.cpu0.commit.op_class_0::MemRead      407272350     30.89%     88.53% # Class of committed instruction
system.cpu0.commit.op_class_0::MemWrite     151186080     11.47%    100.00% # Class of committed instruction
system.cpu0.commit.op_class_0::FloatMemRead            8      0.00%    100.00% # Class of committed instruction
system.cpu0.commit.op_class_0::FloatMemWrite           20      0.00%    100.00% # Class of committed instruction
system.cpu0.commit.op_class_0::IprAccess            0      0.00%    100.00% # Class of committed instruction
system.cpu0.commit.op_class_0::InstPrefetch            0      0.00%    100.00% # Class of committed instruction
system.cpu0.commit.op_class_0::total       1318669768                       # Class of committed instruction
system.cpu0.commit.refs                     558458458                       # Number of memory references committed
system.cpu0.commit.swp_count                        0                       # Number of s/w prefetches committed
system.cpu0.commit.vec_insts                        0                       # Number of committed Vector instructions.
system.cpu0.committedInsts                 1316566189                       # Number of Instructions Simulated
system.cpu0.committedOps                   1318669768                       # Number of Ops (including micro ops) Simulated
system.cpu0.cpi                              2.028480                       # CPI: Cycles Per Instruction
system.cpu0.cpi_total                        2.028480                       # CPI: Total CPI of All Threads
system.cpu0.decode.BlockedCycles            462406775                       # Number of cycles decode is blocked
system.cpu0.decode.BranchMispred              9044761                       # Number of times decode detected a branch misprediction
system.cpu0.decode.BranchResolved           180541059                       # Number of times decode resolved a branch
system.cpu0.decode.DecodedInsts            1414200818                       # Number of instructions handled by decode
system.cpu0.decode.IdleCycles               931915173                       # Number of cycles decode is idle
system.cpu0.decode.RunCycles                974081237                       # Number of cycles decode is running
system.cpu0.decode.SquashCycles              10937767                       # Number of cycles decode is squashing
system.cpu0.decode.SquashedInsts             13386471                       # Number of squashed instructions handled by decode
system.cpu0.decode.UnblockCycles              6180352                       # Number of cycles decode is unblocking
system.cpu0.dtb.accesses                            0                       # DTB accesses
system.cpu0.dtb.hits                                0                       # DTB hits
system.cpu0.dtb.misses                              0                       # DTB misses
system.cpu0.dtb.read_accesses                       0                       # DTB read accesses
system.cpu0.dtb.read_hits                           0                       # DTB read hits
system.cpu0.dtb.read_misses                         0                       # DTB read misses
system.cpu0.dtb.write_accesses                      0                       # DTB write accesses
system.cpu0.dtb.write_hits                          0                       # DTB write hits
system.cpu0.dtb.write_misses                        0                       # DTB write misses
system.cpu0.fetch.Branches                  351877572                       # Number of branches that fetch encountered
system.cpu0.fetch.CacheLines                240010932                       # Number of cache lines fetched
system.cpu0.fetch.Cycles                   1442454168                       # Number of cycles fetch has run and was not squashing or blocked
system.cpu0.fetch.IcacheSquashes              5318513                       # Number of outstanding Icache misses that were squashed
system.cpu0.fetch.IcacheWaitRetryStallCycles           75                       # Number of stall cycles due to full MSHR
system.cpu0.fetch.Insts                    1440368957                       # Number of instructions fetch has processed
system.cpu0.fetch.MiscStallCycles                   9                       # Number of cycles fetch has spent waiting on interrupts, or bad addresses, or out of MSHRs
system.cpu0.fetch.PendingTrapStallCycles            6                       # Number of stall cycles due to pending traps
system.cpu0.fetch.SquashCycles               39857396                       # Number of cycles fetch has spent squashing
system.cpu0.fetch.branchRate                 0.131758                       # Number of branch fetches per cycle
system.cpu0.fetch.icacheStallCycles         923138348                       # Number of cycles fetch is stalled on an Icache miss
system.cpu0.fetch.predictedBranches         206382055                       # Number of branches that fetch has predicted taken
system.cpu0.fetch.rate                       0.539337                       # Number of inst fetches per cycle
system.cpu0.fetch.rateDist::samples        2385521304                       # Number of instructions fetched each cycle (Total)
system.cpu0.fetch.rateDist::mean             0.604678                       # Number of instructions fetched each cycle (Total)
system.cpu0.fetch.rateDist::stdev            0.889512                       # Number of instructions fetched each cycle (Total)
system.cpu0.fetch.rateDist::underflows              0      0.00%      0.00% # Number of instructions fetched each cycle (Total)
system.cpu0.fetch.rateDist::0              1362524315     57.12%     57.12% # Number of instructions fetched each cycle (Total)
system.cpu0.fetch.rateDist::1               761169860     31.91%     89.02% # Number of instructions fetched each cycle (Total)
system.cpu0.fetch.rateDist::2               146917181      6.16%     95.18% # Number of instructions fetched each cycle (Total)
system.cpu0.fetch.rateDist::3                91862791      3.85%     99.03% # Number of instructions fetched each cycle (Total)
system.cpu0.fetch.rateDist::4                13988661      0.59%     99.62% # Number of instructions fetched each cycle (Total)
system.cpu0.fetch.rateDist::5                 4751482      0.20%     99.82% # Number of instructions fetched each cycle (Total)
system.cpu0.fetch.rateDist::6                   93392      0.00%     99.82% # Number of instructions fetched each cycle (Total)
system.cpu0.fetch.rateDist::7                 2100843      0.09%     99.91% # Number of instructions fetched each cycle (Total)
system.cpu0.fetch.rateDist::8                 2112779      0.09%    100.00% # Number of instructions fetched each cycle (Total)
system.cpu0.fetch.rateDist::overflows               0      0.00%    100.00% # Number of instructions fetched each cycle (Total)
system.cpu0.fetch.rateDist::min_value               0                       # Number of instructions fetched each cycle (Total)
system.cpu0.fetch.rateDist::max_value               8                       # Number of instructions fetched each cycle (Total)
system.cpu0.fetch.rateDist::total          2385521304                       # Number of instructions fetched each cycle (Total)
system.cpu0.fp_regfile_reads                       44                       # number of floating regfile reads
system.cpu0.fp_regfile_writes                      22                       # number of floating regfile writes
system.cpu0.idleCycles                      285107061                       # Total number of cycles that the CPU has spent unscheduled due to idling
system.cpu0.iew.branchMispredicts            11038254                       # Number of branch mispredicts detected at execute
system.cpu0.iew.exec_branches               335047422                       # Number of branches executed
system.cpu0.iew.exec_nop                            0                       # number of nop insts executed
system.cpu0.iew.exec_rate                    0.511782                       # Inst execution rate
system.cpu0.iew.exec_refs                   591052094                       # number of memory reference insts executed
system.cpu0.iew.exec_stores                 156216347                       # Number of stores executed
system.cpu0.iew.exec_swp                            0                       # number of swp insts executed
system.cpu0.iew.iewBlockCycles              369653315                       # Number of cycles IEW is blocking
system.cpu0.iew.iewDispLoadInsts            436004512                       # Number of dispatched load instructions
system.cpu0.iew.iewDispNonSpecInsts           2106481                       # Number of dispatched non-speculative instructions
system.cpu0.iew.iewDispSquashedInsts          9429525                       # Number of squashed instructions skipped by dispatch
system.cpu0.iew.iewDispStoreInsts           156869456                       # Number of dispatched store instructions
system.cpu0.iew.iewDispatchedInsts         1380707200                       # Number of instructions dispatched to IQ
system.cpu0.iew.iewExecLoadInsts            434835747                       # Number of load instructions executed
system.cpu0.iew.iewExecSquashedInsts          8092810                       # Number of squashed instructions skipped in execute
system.cpu0.iew.iewExecutedInsts           1366779464                       # Number of executed instructions
system.cpu0.iew.iewIQFullEvents               1907030                       # Number of times the IQ has become full, causing a stall
system.cpu0.iew.iewIdleCycles                       0                       # Number of cycles IEW is idle
system.cpu0.iew.iewLSQFullEvents             13307737                       # Number of times the LSQ has become full, causing a stall
system.cpu0.iew.iewSquashCycles              10937767                       # Number of cycles IEW is squashing
system.cpu0.iew.iewUnblockCycles             17814595                       # Number of cycles IEW is unblocking
system.cpu0.iew.lsq.thread0.blockedLoads            0                       # Number of blocked loads due to partial load-store forwarding
system.cpu0.iew.lsq.thread0.cacheBlocked       226247                       # Number of times an access to memory failed due to the cache being blocked
system.cpu0.iew.lsq.thread0.forwLoads        24825415                       # Number of loads that had data forwarded from stores
system.cpu0.iew.lsq.thread0.ignoredResponses        44236                       # Number of memory responses ignored because the instruction is squashed
system.cpu0.iew.lsq.thread0.invAddrLoads            0                       # Number of loads ignored due to an invalid address
system.cpu0.iew.lsq.thread0.invAddrSwpfs            0                       # Number of software prefetches ignored due to an invalid address
system.cpu0.iew.lsq.thread0.memOrderViolation        10221                       # Number of memory ordering violations
system.cpu0.iew.lsq.thread0.rescheduledLoads      4524471                       # Number of loads that were rescheduled
system.cpu0.iew.lsq.thread0.squashedLoads     30832414                       # Number of loads squashed
system.cpu0.iew.lsq.thread0.squashedStores      3583085                       # Number of stores squashed
system.cpu0.iew.memOrderViolationEvents         10221                       # Number of memory order violations
system.cpu0.iew.predictedNotTakenIncorrect       756149                       # Number of branches that were predicted not taken incorrectly
system.cpu0.iew.predictedTakenIncorrect      10282105                       # Number of branches that were predicted taken incorrectly
system.cpu0.iew.wb_consumers                618837809                       # num instructions consuming a value
system.cpu0.iew.wb_count                   1353239167                       # cumulative count of insts written-back
system.cpu0.iew.wb_fanout                    0.830526                       # average fanout of values written-back
system.cpu0.iew.wb_producers                513961161                       # num instructions producing a value
system.cpu0.iew.wb_rate                      0.506712                       # insts written-back per cycle
system.cpu0.iew.wb_sent                    1353357860                       # cumulative count of insts sent to commit
system.cpu0.int_regfile_reads              1678964770                       # number of integer regfile reads
system.cpu0.int_regfile_writes              871968549                       # number of integer regfile writes
system.cpu0.ipc                              0.492980                       # IPC: Instructions Per Cycle
system.cpu0.ipc_total                        0.492980                       # IPC: Total IPC of All Threads
system.cpu0.iq.FU_type_0::No_OpClass          4205608      0.31%      0.31% # Type of FU issued
system.cpu0.iq.FU_type_0::IntAlu            762259878     55.44%     55.75% # Type of FU issued
system.cpu0.iq.FU_type_0::IntMult            11848473      0.86%     56.61% # Type of FU issued
system.cpu0.iq.FU_type_0::IntDiv              2100411      0.15%     56.76% # Type of FU issued
system.cpu0.iq.FU_type_0::FloatAdd                  0      0.00%     56.76% # Type of FU issued
system.cpu0.iq.FU_type_0::FloatCmp                  4      0.00%     56.76% # Type of FU issued
system.cpu0.iq.FU_type_0::FloatCvt                 12      0.00%     56.76% # Type of FU issued
system.cpu0.iq.FU_type_0::FloatMult                 0      0.00%     56.76% # Type of FU issued
system.cpu0.iq.FU_type_0::FloatMultAcc              0      0.00%     56.76% # Type of FU issued
system.cpu0.iq.FU_type_0::FloatDiv                  2      0.00%     56.76% # Type of FU issued
system.cpu0.iq.FU_type_0::FloatMisc                 4      0.00%     56.76% # Type of FU issued
system.cpu0.iq.FU_type_0::FloatSqrt                 0      0.00%     56.76% # Type of FU issued
system.cpu0.iq.FU_type_0::SimdAdd                   0      0.00%     56.76% # Type of FU issued
system.cpu0.iq.FU_type_0::SimdAddAcc                0      0.00%     56.76% # Type of FU issued
system.cpu0.iq.FU_type_0::SimdAlu                   0      0.00%     56.76% # Type of FU issued
system.cpu0.iq.FU_type_0::SimdCmp                   0      0.00%     56.76% # Type of FU issued
system.cpu0.iq.FU_type_0::SimdCvt                   0      0.00%     56.76% # Type of FU issued
system.cpu0.iq.FU_type_0::SimdMisc                  0      0.00%     56.76% # Type of FU issued
system.cpu0.iq.FU_type_0::SimdMult                  0      0.00%     56.76% # Type of FU issued
system.cpu0.iq.FU_type_0::SimdMultAcc               0      0.00%     56.76% # Type of FU issued
system.cpu0.iq.FU_type_0::SimdShift                 0      0.00%     56.76% # Type of FU issued
system.cpu0.iq.FU_type_0::SimdShiftAcc              0      0.00%     56.76% # Type of FU issued
system.cpu0.iq.FU_type_0::SimdDiv                   0      0.00%     56.76% # Type of FU issued
system.cpu0.iq.FU_type_0::SimdSqrt                  0      0.00%     56.76% # Type of FU issued
system.cpu0.iq.FU_type_0::SimdFloatAdd              0      0.00%     56.76% # Type of FU issued
system.cpu0.iq.FU_type_0::SimdFloatAlu              0      0.00%     56.76% # Type of FU issued
system.cpu0.iq.FU_type_0::SimdFloatCmp              0      0.00%     56.76% # Type of FU issued
system.cpu0.iq.FU_type_0::SimdFloatCvt              0      0.00%     56.76% # Type of FU issued
system.cpu0.iq.FU_type_0::SimdFloatDiv              0      0.00%     56.76% # Type of FU issued
system.cpu0.iq.FU_type_0::SimdFloatMisc             0      0.00%     56.76% # Type of FU issued
system.cpu0.iq.FU_type_0::SimdFloatMult             0      0.00%     56.76% # Type of FU issued
system.cpu0.iq.FU_type_0::SimdFloatMultAcc            0      0.00%     56.76% # Type of FU issued
system.cpu0.iq.FU_type_0::SimdFloatSqrt             0      0.00%     56.76% # Type of FU issued
system.cpu0.iq.FU_type_0::SimdReduceAdd             0      0.00%     56.76% # Type of FU issued
system.cpu0.iq.FU_type_0::SimdReduceAlu             0      0.00%     56.76% # Type of FU issued
system.cpu0.iq.FU_type_0::SimdReduceCmp             0      0.00%     56.76% # Type of FU issued
system.cpu0.iq.FU_type_0::SimdFloatReduceAdd            0      0.00%     56.76% # Type of FU issued
system.cpu0.iq.FU_type_0::SimdFloatReduceCmp            0      0.00%     56.76% # Type of FU issued
system.cpu0.iq.FU_type_0::SimdAes                   0      0.00%     56.76% # Type of FU issued
system.cpu0.iq.FU_type_0::SimdAesMix                0      0.00%     56.76% # Type of FU issued
system.cpu0.iq.FU_type_0::SimdSha1Hash              0      0.00%     56.76% # Type of FU issued
system.cpu0.iq.FU_type_0::SimdSha1Hash2             0      0.00%     56.76% # Type of FU issued
system.cpu0.iq.FU_type_0::SimdSha256Hash            0      0.00%     56.76% # Type of FU issued
system.cpu0.iq.FU_type_0::SimdSha256Hash2            0      0.00%     56.76% # Type of FU issued
system.cpu0.iq.FU_type_0::SimdShaSigma2             0      0.00%     56.76% # Type of FU issued
system.cpu0.iq.FU_type_0::SimdShaSigma3             0      0.00%     56.76% # Type of FU issued
system.cpu0.iq.FU_type_0::SimdPredAlu               0      0.00%     56.76% # Type of FU issued
system.cpu0.iq.FU_type_0::MemRead           440215366     32.02%     88.78% # Type of FU issued
system.cpu0.iq.FU_type_0::MemWrite          154242489     11.22%    100.00% # Type of FU issued
system.cpu0.iq.FU_type_0::FloatMemRead              8      0.00%    100.00% # Type of FU issued
system.cpu0.iq.FU_type_0::FloatMemWrite            20      0.00%    100.00% # Type of FU issued
system.cpu0.iq.FU_type_0::IprAccess                 0      0.00%    100.00% # Type of FU issued
system.cpu0.iq.FU_type_0::InstPrefetch              0      0.00%    100.00% # Type of FU issued
system.cpu0.iq.FU_type_0::total            1374872275                       # Type of FU issued
system.cpu0.iq.fp_alu_accesses                     52                       # Number of floating point alu accesses
system.cpu0.iq.fp_inst_queue_reads                102                       # Number of floating instruction queue reads
system.cpu0.iq.fp_inst_queue_wakeup_accesses           50                       # Number of floating instruction queue wakeup accesses
system.cpu0.iq.fp_inst_queue_writes                50                       # Number of floating instruction queue writes
system.cpu0.iq.fu_busy_cnt                    3182226                       # FU busy when requested
system.cpu0.iq.fu_busy_rate                  0.002315                       # FU busy rate (busy events/executed inst)
system.cpu0.iq.fu_full::No_OpClass                  0      0.00%      0.00% # attempts to use FU when none available
system.cpu0.iq.fu_full::IntAlu                 621918     19.54%     19.54% # attempts to use FU when none available
system.cpu0.iq.fu_full::IntMult                     0      0.00%     19.54% # attempts to use FU when none available
system.cpu0.iq.fu_full::IntDiv                      0      0.00%     19.54% # attempts to use FU when none available
system.cpu0.iq.fu_full::FloatAdd                    0      0.00%     19.54% # attempts to use FU when none available
system.cpu0.iq.fu_full::FloatCmp                    0      0.00%     19.54% # attempts to use FU when none available
system.cpu0.iq.fu_full::FloatCvt                    0      0.00%     19.54% # attempts to use FU when none available
system.cpu0.iq.fu_full::FloatMult                   0      0.00%     19.54% # attempts to use FU when none available
system.cpu0.iq.fu_full::FloatMultAcc                0      0.00%     19.54% # attempts to use FU when none available
system.cpu0.iq.fu_full::FloatDiv                    0      0.00%     19.54% # attempts to use FU when none available
system.cpu0.iq.fu_full::FloatMisc                   0      0.00%     19.54% # attempts to use FU when none available
system.cpu0.iq.fu_full::FloatSqrt                   0      0.00%     19.54% # attempts to use FU when none available
system.cpu0.iq.fu_full::SimdAdd                     0      0.00%     19.54% # attempts to use FU when none available
system.cpu0.iq.fu_full::SimdAddAcc                  0      0.00%     19.54% # attempts to use FU when none available
system.cpu0.iq.fu_full::SimdAlu                     0      0.00%     19.54% # attempts to use FU when none available
system.cpu0.iq.fu_full::SimdCmp                     0      0.00%     19.54% # attempts to use FU when none available
system.cpu0.iq.fu_full::SimdCvt                     0      0.00%     19.54% # attempts to use FU when none available
system.cpu0.iq.fu_full::SimdMisc                    0      0.00%     19.54% # attempts to use FU when none available
system.cpu0.iq.fu_full::SimdMult                    0      0.00%     19.54% # attempts to use FU when none available
system.cpu0.iq.fu_full::SimdMultAcc                 0      0.00%     19.54% # attempts to use FU when none available
system.cpu0.iq.fu_full::SimdShift                   0      0.00%     19.54% # attempts to use FU when none available
system.cpu0.iq.fu_full::SimdShiftAcc                0      0.00%     19.54% # attempts to use FU when none available
system.cpu0.iq.fu_full::SimdDiv                     0      0.00%     19.54% # attempts to use FU when none available
system.cpu0.iq.fu_full::SimdSqrt                    0      0.00%     19.54% # attempts to use FU when none available
system.cpu0.iq.fu_full::SimdFloatAdd                0      0.00%     19.54% # attempts to use FU when none available
system.cpu0.iq.fu_full::SimdFloatAlu                0      0.00%     19.54% # attempts to use FU when none available
system.cpu0.iq.fu_full::SimdFloatCmp                0      0.00%     19.54% # attempts to use FU when none available
system.cpu0.iq.fu_full::SimdFloatCvt                0      0.00%     19.54% # attempts to use FU when none available
system.cpu0.iq.fu_full::SimdFloatDiv                0      0.00%     19.54% # attempts to use FU when none available
system.cpu0.iq.fu_full::SimdFloatMisc               0      0.00%     19.54% # attempts to use FU when none available
system.cpu0.iq.fu_full::SimdFloatMult               0      0.00%     19.54% # attempts to use FU when none available
system.cpu0.iq.fu_full::SimdFloatMultAcc            0      0.00%     19.54% # attempts to use FU when none available
system.cpu0.iq.fu_full::SimdFloatSqrt               0      0.00%     19.54% # attempts to use FU when none available
system.cpu0.iq.fu_full::SimdReduceAdd               0      0.00%     19.54% # attempts to use FU when none available
system.cpu0.iq.fu_full::SimdReduceAlu               0      0.00%     19.54% # attempts to use FU when none available
system.cpu0.iq.fu_full::SimdReduceCmp               0      0.00%     19.54% # attempts to use FU when none available
system.cpu0.iq.fu_full::SimdFloatReduceAdd            0      0.00%     19.54% # attempts to use FU when none available
system.cpu0.iq.fu_full::SimdFloatReduceCmp            0      0.00%     19.54% # attempts to use FU when none available
system.cpu0.iq.fu_full::SimdAes                     0      0.00%     19.54% # attempts to use FU when none available
system.cpu0.iq.fu_full::SimdAesMix                  0      0.00%     19.54% # attempts to use FU when none available
system.cpu0.iq.fu_full::SimdSha1Hash                0      0.00%     19.54% # attempts to use FU when none available
system.cpu0.iq.fu_full::SimdSha1Hash2               0      0.00%     19.54% # attempts to use FU when none available
system.cpu0.iq.fu_full::SimdSha256Hash              0      0.00%     19.54% # attempts to use FU when none available
system.cpu0.iq.fu_full::SimdSha256Hash2             0      0.00%     19.54% # attempts to use FU when none available
system.cpu0.iq.fu_full::SimdShaSigma2               0      0.00%     19.54% # attempts to use FU when none available
system.cpu0.iq.fu_full::SimdShaSigma3               0      0.00%     19.54% # attempts to use FU when none available
system.cpu0.iq.fu_full::SimdPredAlu                 0      0.00%     19.54% # attempts to use FU when none available
system.cpu0.iq.fu_full::MemRead               2045528     64.28%     83.82% # attempts to use FU when none available
system.cpu0.iq.fu_full::MemWrite               514778     16.18%    100.00% # attempts to use FU when none available
system.cpu0.iq.fu_full::FloatMemRead                0      0.00%    100.00% # attempts to use FU when none available
system.cpu0.iq.fu_full::FloatMemWrite               2      0.00%    100.00% # attempts to use FU when none available
system.cpu0.iq.fu_full::IprAccess                   0      0.00%    100.00% # attempts to use FU when none available
system.cpu0.iq.fu_full::InstPrefetch                0      0.00%    100.00% # attempts to use FU when none available
system.cpu0.iq.int_alu_accesses            1373848841                       # Number of integer alu accesses
system.cpu0.iq.int_inst_queue_reads        5138658027                       # Number of integer instruction queue reads
system.cpu0.iq.int_inst_queue_wakeup_accesses   1353239117                       # Number of integer instruction queue wakeup accesses
system.cpu0.iq.int_inst_queue_writes       1442753855                       # Number of integer instruction queue writes
system.cpu0.iq.iqInstsAdded                1374396822                       # Number of instructions added to the IQ (excludes non-spec)
system.cpu0.iq.iqInstsIssued               1374872275                       # Number of instructions issued
system.cpu0.iq.iqNonSpecInstsAdded            6310378                       # Number of non-speculative instructions added to the IQ
system.cpu0.iq.iqSquashedInstsExamined       62037347                       # Number of squashed instructions iterated over during squash; mainly for profiling
system.cpu0.iq.iqSquashedInstsIssued           210050                       # Number of squashed instructions issued
system.cpu0.iq.iqSquashedNonSpecRemoved           638                       # Number of squashed non-spec instructions that were removed
system.cpu0.iq.iqSquashedOperandsExamined     27259072                       # Number of squashed operands that are examined and possibly removed from graph
system.cpu0.iq.issued_per_cycle::samples   2385521304                       # Number of insts issued each cycle
system.cpu0.iq.issued_per_cycle::mean        0.576340                       # Number of insts issued each cycle
system.cpu0.iq.issued_per_cycle::stdev       0.831187                       # Number of insts issued each cycle
system.cpu0.iq.issued_per_cycle::underflows            0      0.00%      0.00% # Number of insts issued each cycle
system.cpu0.iq.issued_per_cycle::0         1391260320     58.32%     58.32% # Number of insts issued each cycle
system.cpu0.iq.issued_per_cycle::1          719796177     30.17%     88.49% # Number of insts issued each cycle
system.cpu0.iq.issued_per_cycle::2          196937427      8.26%     96.75% # Number of insts issued each cycle
system.cpu0.iq.issued_per_cycle::3           59747209      2.50%     99.25% # Number of insts issued each cycle
system.cpu0.iq.issued_per_cycle::4           11649545      0.49%     99.74% # Number of insts issued each cycle
system.cpu0.iq.issued_per_cycle::5            3008618      0.13%     99.87% # Number of insts issued each cycle
system.cpu0.iq.issued_per_cycle::6            1830528      0.08%     99.95% # Number of insts issued each cycle
system.cpu0.iq.issued_per_cycle::7             996661      0.04%     99.99% # Number of insts issued each cycle
system.cpu0.iq.issued_per_cycle::8             294819      0.01%    100.00% # Number of insts issued each cycle
system.cpu0.iq.issued_per_cycle::overflows            0      0.00%    100.00% # Number of insts issued each cycle
system.cpu0.iq.issued_per_cycle::min_value            0                       # Number of insts issued each cycle
system.cpu0.iq.issued_per_cycle::max_value            8                       # Number of insts issued each cycle
system.cpu0.iq.issued_per_cycle::total     2385521304                       # Number of insts issued each cycle
system.cpu0.iq.rate                          0.514812                       # Inst issue rate
system.cpu0.iq.vec_alu_accesses                     0                       # Number of vector alu accesses
system.cpu0.iq.vec_inst_queue_reads                 0                       # Number of vector instruction queue reads
system.cpu0.iq.vec_inst_queue_wakeup_accesses            0                       # Number of vector instruction queue wakeup accesses
system.cpu0.iq.vec_inst_queue_writes                0                       # Number of vector instruction queue writes
system.cpu0.itb.accesses                            0                       # DTB accesses
system.cpu0.itb.hits                                0                       # DTB hits
system.cpu0.itb.misses                              0                       # DTB misses
system.cpu0.itb.read_accesses                       0                       # DTB read accesses
system.cpu0.itb.read_hits                           0                       # DTB read hits
system.cpu0.itb.read_misses                         0                       # DTB read misses
system.cpu0.itb.write_accesses                      0                       # DTB write accesses
system.cpu0.itb.write_hits                          0                       # DTB write hits
system.cpu0.itb.write_misses                        0                       # DTB write misses
system.cpu0.memDep0.conflictingLoads         20364647                       # Number of conflicting loads.
system.cpu0.memDep0.conflictingStores         1464048                       # Number of conflicting stores.
system.cpu0.memDep0.insertedLoads           436004512                       # Number of loads inserted to the mem dependence unit.
system.cpu0.memDep0.insertedStores          156869456                       # Number of stores inserted to the mem dependence unit.
system.cpu0.misc_regfile_reads                   1891                       # number of misc regfile reads
system.cpu0.misc_regfile_writes                    22                       # number of misc regfile writes
system.cpu0.numCycles                      2670628365                       # number of cpu cycles simulated
system.cpu0.numWorkItemsCompleted                   0                       # number of work items this cpu completed
system.cpu0.numWorkItemsStarted                     0                       # number of work items this cpu started
system.cpu0.quiesceCycles                     6061702                       # Total number of cycles that CPU has spent quiesced or waiting for an interrupt
system.cpu0.rename.BlockCycles              402860752                       # Number of cycles rename is blocking
system.cpu0.rename.CommittedMaps            845209099                       # Number of HB maps that are committed
system.cpu0.rename.IQFullEvents              14487199                       # Number of times rename has blocked due to IQ full
system.cpu0.rename.IdleCycles               945583590                       # Number of cycles rename is idle
system.cpu0.rename.LQFullEvents              18089878                       # Number of times rename has blocked due to LQ full
system.cpu0.rename.ROBFullEvents                18036                       # Number of times rename has blocked due to ROB full
system.cpu0.rename.RenameLookups           1719489653                       # Number of register rename lookups that rename has made
system.cpu0.rename.RenamedInsts            1401686619                       # Number of instructions processed by rename
system.cpu0.rename.RenamedOperands          913742135                       # Number of destination operands rename has renamed
system.cpu0.rename.RunCycles                965287753                       # Number of cycles rename is running
system.cpu0.rename.SQFullEvents              27067539                       # Number of times rename has blocked due to SQ full
system.cpu0.rename.SquashCycles              10937767                       # Number of cycles rename is squashing
system.cpu0.rename.UnblockCycles             60427310                       # Number of cycles rename is unblocking
system.cpu0.rename.UndoneMaps                68532969                       # Number of HB maps that are undone due to squashing
system.cpu0.rename.fp_rename_lookups               44                       # Number of floating rename lookups
system.cpu0.rename.int_rename_lookups      1719489609                       # Number of integer rename lookups
system.cpu0.rename.serializeStallCycles        424132                       # count of cycles rename stalled for serializing inst
system.cpu0.rename.serializingInsts              5910                       # count of serializing insts renamed
system.cpu0.rename.skidInsts                 32336367                       # count of insts added to the skid buffer
system.cpu0.rename.tempSerializingInsts          5910                       # count of temporary serializing insts renamed
system.cpu0.rob.rob_reads                  3718853544                       # The number of ROB reads
system.cpu0.rob.rob_writes                 2776727430                       # The number of ROB writes
system.cpu0.timesIdled                       33456183                       # Number of times that the entire CPU went into an idle state and unscheduled itself
system.cpu0.workload.numSyscalls                 1858                       # Number of system calls
system.cpu1.branchPred.BTBCorrect                   0                       # Number of correct BTB predictions (this stat may not work properly.
system.cpu1.branchPred.BTBHitPct            84.973211                       # BTB Hit Percentage
system.cpu1.branchPred.BTBHits               20604005                       # Number of BTB hits
system.cpu1.branchPred.BTBLookups            24247648                       # Number of BTB lookups
system.cpu1.branchPred.RASInCorrect                 0                       # Number of incorrect RAS predictions.
system.cpu1.branchPred.condIncorrect          2771027                       # Number of conditional branches incorrect
system.cpu1.branchPred.condPredicted         30654284                       # Number of conditional branches predicted
system.cpu1.branchPred.indirectHits           1055858                       # Number of indirect target hits.
system.cpu1.branchPred.indirectLookups        1069602                       # Number of indirect predictor lookups.
system.cpu1.branchPred.indirectMisses           13744                       # Number of indirect misses.
system.cpu1.branchPred.lookups               35164266                       # Number of BP lookups
system.cpu1.branchPred.usedRAS                      0                       # Number of times the RAS was used to get a target.
system.cpu1.branchPredindirectMispredicted        47885                       # Number of mispredicted indirect branches.
system.cpu1.commit.amos                       2099997                       # Number of atomic instructions committed
system.cpu1.commit.branchMispredicts          1969844                       # The number of times a branch was mispredicted
system.cpu1.commit.branches                  28116718                       # Number of branches committed
system.cpu1.commit.bw_lim_events              3694764                       # number cycles where commit BW limit reached
system.cpu1.commit.commitNonSpecStalls        6300649                       # The number of times commit has been forced to stall to communicate backwards
system.cpu1.commit.commitSquashedInsts       15082673                       # The number of squashed insts skipped by commit
system.cpu1.commit.committedInsts           120052385                       # Number of instructions committed
system.cpu1.commit.committedOps             122152553                       # Number of ops (including micro ops) committed
system.cpu1.commit.committed_per_cycle::samples    468896209                       # Number of insts commited each cycle
system.cpu1.commit.committed_per_cycle::mean     0.260511                       # Number of insts commited each cycle
system.cpu1.commit.committed_per_cycle::stdev     1.017883                       # Number of insts commited each cycle
system.cpu1.commit.committed_per_cycle::underflows            0      0.00%      0.00% # Number of insts commited each cycle
system.cpu1.commit.committed_per_cycle::0    419082947     89.38%     89.38% # Number of insts commited each cycle
system.cpu1.commit.committed_per_cycle::1     24852689      5.30%     94.68% # Number of insts commited each cycle
system.cpu1.commit.committed_per_cycle::2      8529667      1.82%     96.50% # Number of insts commited each cycle
system.cpu1.commit.committed_per_cycle::3      6990078      1.49%     97.99% # Number of insts commited each cycle
system.cpu1.commit.committed_per_cycle::4      2068756      0.44%     98.43% # Number of insts commited each cycle
system.cpu1.commit.committed_per_cycle::5       977646      0.21%     98.64% # Number of insts commited each cycle
system.cpu1.commit.committed_per_cycle::6      2348704      0.50%     99.14% # Number of insts commited each cycle
system.cpu1.commit.committed_per_cycle::7       350958      0.07%     99.21% # Number of insts commited each cycle
system.cpu1.commit.committed_per_cycle::8      3694764      0.79%    100.00% # Number of insts commited each cycle
system.cpu1.commit.committed_per_cycle::overflows            0      0.00%    100.00% # Number of insts commited each cycle
system.cpu1.commit.committed_per_cycle::min_value            0                       # Number of insts commited each cycle
system.cpu1.commit.committed_per_cycle::max_value            8                       # Number of insts commited each cycle
system.cpu1.commit.committed_per_cycle::total    468896209                       # Number of insts commited each cycle
system.cpu1.commit.fp_insts                        12                       # Number of committed floating point instructions.
system.cpu1.commit.function_calls             1797631                       # Number of function calls committed.
system.cpu1.commit.int_insts                116589908                       # Number of committed integer instructions.
system.cpu1.commit.loads                     30173857                       # Number of loads committed
system.cpu1.commit.membars                    4200106                       # Number of memory barriers committed
system.cpu1.commit.op_class_0::No_OpClass      4200106      3.44%      3.44% # Class of committed instruction
system.cpu1.commit.op_class_0::IntAlu        76659049     62.76%     66.20% # Class of committed instruction
system.cpu1.commit.op_class_0::IntMult             44      0.00%     66.20% # Class of committed instruction
system.cpu1.commit.op_class_0::IntDiv              88      0.00%     66.20% # Class of committed instruction
system.cpu1.commit.op_class_0::FloatAdd             0      0.00%     66.20% # Class of committed instruction
system.cpu1.commit.op_class_0::FloatCmp             0      0.00%     66.20% # Class of committed instruction
system.cpu1.commit.op_class_0::FloatCvt             0      0.00%     66.20% # Class of committed instruction
system.cpu1.commit.op_class_0::FloatMult            0      0.00%     66.20% # Class of committed instruction
system.cpu1.commit.op_class_0::FloatMultAcc            0      0.00%     66.20% # Class of committed instruction
system.cpu1.commit.op_class_0::FloatDiv             0      0.00%     66.20% # Class of committed instruction
system.cpu1.commit.op_class_0::FloatMisc            0      0.00%     66.20% # Class of committed instruction
system.cpu1.commit.op_class_0::FloatSqrt            0      0.00%     66.20% # Class of committed instruction
system.cpu1.commit.op_class_0::SimdAdd              0      0.00%     66.20% # Class of committed instruction
system.cpu1.commit.op_class_0::SimdAddAcc            0      0.00%     66.20% # Class of committed instruction
system.cpu1.commit.op_class_0::SimdAlu              0      0.00%     66.20% # Class of committed instruction
system.cpu1.commit.op_class_0::SimdCmp              0      0.00%     66.20% # Class of committed instruction
system.cpu1.commit.op_class_0::SimdCvt              0      0.00%     66.20% # Class of committed instruction
system.cpu1.commit.op_class_0::SimdMisc             0      0.00%     66.20% # Class of committed instruction
system.cpu1.commit.op_class_0::SimdMult             0      0.00%     66.20% # Class of committed instruction
system.cpu1.commit.op_class_0::SimdMultAcc            0      0.00%     66.20% # Class of committed instruction
system.cpu1.commit.op_class_0::SimdShift            0      0.00%     66.20% # Class of committed instruction
system.cpu1.commit.op_class_0::SimdShiftAcc            0      0.00%     66.20% # Class of committed instruction
system.cpu1.commit.op_class_0::SimdDiv              0      0.00%     66.20% # Class of committed instruction
system.cpu1.commit.op_class_0::SimdSqrt             0      0.00%     66.20% # Class of committed instruction
system.cpu1.commit.op_class_0::SimdFloatAdd            0      0.00%     66.20% # Class of committed instruction
system.cpu1.commit.op_class_0::SimdFloatAlu            0      0.00%     66.20% # Class of committed instruction
system.cpu1.commit.op_class_0::SimdFloatCmp            0      0.00%     66.20% # Class of committed instruction
system.cpu1.commit.op_class_0::SimdFloatCvt            0      0.00%     66.20% # Class of committed instruction
system.cpu1.commit.op_class_0::SimdFloatDiv            0      0.00%     66.20% # Class of committed instruction
system.cpu1.commit.op_class_0::SimdFloatMisc            0      0.00%     66.20% # Class of committed instruction
system.cpu1.commit.op_class_0::SimdFloatMult            0      0.00%     66.20% # Class of committed instruction
system.cpu1.commit.op_class_0::SimdFloatMultAcc            0      0.00%     66.20% # Class of committed instruction
system.cpu1.commit.op_class_0::SimdFloatSqrt            0      0.00%     66.20% # Class of committed instruction
system.cpu1.commit.op_class_0::SimdReduceAdd            0      0.00%     66.20% # Class of committed instruction
system.cpu1.commit.op_class_0::SimdReduceAlu            0      0.00%     66.20% # Class of committed instruction
system.cpu1.commit.op_class_0::SimdReduceCmp            0      0.00%     66.20% # Class of committed instruction
system.cpu1.commit.op_class_0::SimdFloatReduceAdd            0      0.00%     66.20% # Class of committed instruction
system.cpu1.commit.op_class_0::SimdFloatReduceCmp            0      0.00%     66.20% # Class of committed instruction
system.cpu1.commit.op_class_0::SimdAes              0      0.00%     66.20% # Class of committed instruction
system.cpu1.commit.op_class_0::SimdAesMix            0      0.00%     66.20% # Class of committed instruction
system.cpu1.commit.op_class_0::SimdSha1Hash            0      0.00%     66.20% # Class of committed instruction
system.cpu1.commit.op_class_0::SimdSha1Hash2            0      0.00%     66.20% # Class of committed instruction
system.cpu1.commit.op_class_0::SimdSha256Hash            0      0.00%     66.20% # Class of committed instruction
system.cpu1.commit.op_class_0::SimdSha256Hash2            0      0.00%     66.20% # Class of committed instruction
system.cpu1.commit.op_class_0::SimdShaSigma2            0      0.00%     66.20% # Class of committed instruction
system.cpu1.commit.op_class_0::SimdShaSigma3            0      0.00%     66.20% # Class of committed instruction
system.cpu1.commit.op_class_0::SimdPredAlu            0      0.00%     66.20% # Class of committed instruction
system.cpu1.commit.op_class_0::MemRead       32273854     26.42%     92.62% # Class of committed instruction
system.cpu1.commit.op_class_0::MemWrite       9019400      7.38%    100.00% # Class of committed instruction
system.cpu1.commit.op_class_0::FloatMemRead            0      0.00%    100.00% # Class of committed instruction
system.cpu1.commit.op_class_0::FloatMemWrite           12      0.00%    100.00% # Class of committed instruction
system.cpu1.commit.op_class_0::IprAccess            0      0.00%    100.00% # Class of committed instruction
system.cpu1.commit.op_class_0::InstPrefetch            0      0.00%    100.00% # Class of committed instruction
system.cpu1.commit.op_class_0::total        122152553                       # Class of committed instruction
system.cpu1.commit.refs                      41293266                       # Number of memory references committed
system.cpu1.commit.swp_count                        0                       # Number of s/w prefetches committed
system.cpu1.commit.vec_insts                        0                       # Number of committed Vector instructions.
system.cpu1.committedInsts                  120052385                       # Number of Instructions Simulated
system.cpu1.committedOps                    122152553                       # Number of Ops (including micro ops) Simulated
system.cpu1.cpi                              3.940006                       # CPI: Cycles Per Instruction
system.cpu1.cpi_total                        3.940006                       # CPI: Total CPI of All Threads
system.cpu1.decode.BlockedCycles            376860350                       # Number of cycles decode is blocked
system.cpu1.decode.BranchMispred               851778                       # Number of times decode detected a branch misprediction
system.cpu1.decode.BranchResolved            19618988                       # Number of times decode resolved a branch
system.cpu1.decode.DecodedInsts             144202326                       # Number of instructions handled by decode
system.cpu1.decode.IdleCycles                22966886                       # Number of cycles decode is idle
system.cpu1.decode.RunCycles                 65154411                       # Number of cycles decode is running
system.cpu1.decode.SquashCycles               1971267                       # Number of cycles decode is squashing
system.cpu1.decode.SquashedInsts              2035147                       # Number of squashed instructions handled by decode
system.cpu1.decode.UnblockCycles              5113255                       # Number of cycles decode is unblocking
system.cpu1.dtb.accesses                            0                       # DTB accesses
system.cpu1.dtb.hits                                0                       # DTB hits
system.cpu1.dtb.misses                              0                       # DTB misses
system.cpu1.dtb.read_accesses                       0                       # DTB read accesses
system.cpu1.dtb.read_hits                           0                       # DTB read hits
system.cpu1.dtb.read_misses                         0                       # DTB read misses
system.cpu1.dtb.write_accesses                      0                       # DTB write accesses
system.cpu1.dtb.write_hits                          0                       # DTB write hits
system.cpu1.dtb.write_misses                        0                       # DTB write misses
system.cpu1.fetch.Branches                   35164266                       # Number of branches that fetch encountered
system.cpu1.fetch.CacheLines                 21338076                       # Number of cache lines fetched
system.cpu1.fetch.Cycles                    445918827                       # Number of cycles fetch has run and was not squashing or blocked
system.cpu1.fetch.IcacheSquashes               241045                       # Number of outstanding Icache misses that were squashed
system.cpu1.fetch.Insts                     149099926                       # Number of instructions fetch has processed
system.cpu1.fetch.MiscStallCycles                   1                       # Number of cycles fetch has spent waiting on interrupts, or bad addresses, or out of MSHRs
system.cpu1.fetch.SquashCycles                5544900                       # Number of cycles fetch has spent squashing
system.cpu1.fetch.branchRate                 0.074342                       # Number of branch fetches per cycle
system.cpu1.fetch.icacheStallCycles          23374891                       # Number of cycles fetch is stalled on an Icache miss
system.cpu1.fetch.predictedBranches          21659863                       # Number of branches that fetch has predicted taken
system.cpu1.fetch.rate                       0.315217                       # Number of inst fetches per cycle
system.cpu1.fetch.rateDist::samples         472066169                       # Number of instructions fetched each cycle (Total)
system.cpu1.fetch.rateDist::mean             0.320295                       # Number of instructions fetched each cycle (Total)
system.cpu1.fetch.rateDist::stdev            0.739966                       # Number of instructions fetched each cycle (Total)
system.cpu1.fetch.rateDist::underflows              0      0.00%      0.00% # Number of instructions fetched each cycle (Total)
system.cpu1.fetch.rateDist::0               374883450     79.41%     79.41% # Number of instructions fetched each cycle (Total)
system.cpu1.fetch.rateDist::1                62243713     13.19%     92.60% # Number of instructions fetched each cycle (Total)
system.cpu1.fetch.rateDist::2                19961130      4.23%     96.83% # Number of instructions fetched each cycle (Total)
system.cpu1.fetch.rateDist::3                11473062      2.43%     99.26% # Number of instructions fetched each cycle (Total)
system.cpu1.fetch.rateDist::4                 2968039      0.63%     99.89% # Number of instructions fetched each cycle (Total)
system.cpu1.fetch.rateDist::5                  477995      0.10%     99.99% # Number of instructions fetched each cycle (Total)
system.cpu1.fetch.rateDist::6                   58495      0.01%    100.00% # Number of instructions fetched each cycle (Total)
system.cpu1.fetch.rateDist::7                       8      0.00%    100.00% # Number of instructions fetched each cycle (Total)
system.cpu1.fetch.rateDist::8                     277      0.00%    100.00% # Number of instructions fetched each cycle (Total)
system.cpu1.fetch.rateDist::overflows               0      0.00%    100.00% # Number of instructions fetched each cycle (Total)
system.cpu1.fetch.rateDist::min_value               0                       # Number of instructions fetched each cycle (Total)
system.cpu1.fetch.rateDist::max_value               8                       # Number of instructions fetched each cycle (Total)
system.cpu1.fetch.rateDist::total           472066169                       # Number of instructions fetched each cycle (Total)
system.cpu1.fp_regfile_reads                       12                       # number of floating regfile reads
system.cpu1.idleCycles                         940965                       # Total number of cycles that the CPU has spent unscheduled due to idling
system.cpu1.iew.branchMispredicts             2045596                       # Number of branch mispredicts detected at execute
system.cpu1.iew.exec_branches                30363251                       # Number of branches executed
system.cpu1.iew.exec_nop                            0                       # number of nop insts executed
system.cpu1.iew.exec_rate                    0.279707                       # Inst execution rate
system.cpu1.iew.exec_refs                    44989889                       # number of memory reference insts executed
system.cpu1.iew.exec_stores                  11482033                       # Number of stores executed
system.cpu1.iew.exec_swp                            0                       # number of swp insts executed
system.cpu1.iew.iewBlockCycles              314026215                       # Number of cycles IEW is blocking
system.cpu1.iew.iewDispLoadInsts             34138915                       # Number of dispatched load instructions
system.cpu1.iew.iewDispNonSpecInsts           2100731                       # Number of dispatched non-speculative instructions
system.cpu1.iew.iewDispSquashedInsts          2352927                       # Number of squashed instructions skipped by dispatch
system.cpu1.iew.iewDispStoreInsts            11776576                       # Number of dispatched store instructions
system.cpu1.iew.iewDispatchedInsts          137192866                       # Number of instructions dispatched to IQ
system.cpu1.iew.iewExecLoadInsts             33507856                       # Number of load instructions executed
system.cpu1.iew.iewExecSquashedInsts          2108890                       # Number of squashed instructions skipped in execute
system.cpu1.iew.iewExecutedInsts            132303597                       # Number of executed instructions
system.cpu1.iew.iewIQFullEvents               1902517                       # Number of times the IQ has become full, causing a stall
system.cpu1.iew.iewIdleCycles                       0                       # Number of cycles IEW is idle
system.cpu1.iew.iewLSQFullEvents              6300704                       # Number of times the LSQ has become full, causing a stall
system.cpu1.iew.iewSquashCycles               1971267                       # Number of cycles IEW is squashing
system.cpu1.iew.iewUnblockCycles             10603992                       # Number of cycles IEW is unblocking
system.cpu1.iew.lsq.thread0.blockedLoads            0                       # Number of blocked loads due to partial load-store forwarding
system.cpu1.iew.lsq.thread0.cacheBlocked       109327                       # Number of times an access to memory failed due to the cache being blocked
system.cpu1.iew.lsq.thread0.forwLoads          847251                       # Number of loads that had data forwarded from stores
system.cpu1.iew.lsq.thread0.ignoredResponses        28590                       # Number of memory responses ignored because the instruction is squashed
system.cpu1.iew.lsq.thread0.invAddrLoads            0                       # Number of loads ignored due to an invalid address
system.cpu1.iew.lsq.thread0.invAddrSwpfs            0                       # Number of software prefetches ignored due to an invalid address
system.cpu1.iew.lsq.thread0.memOrderViolation         1944                       # Number of memory ordering violations
system.cpu1.iew.lsq.thread0.rescheduledLoads        12949                       # Number of loads that were rescheduled
system.cpu1.iew.lsq.thread0.squashedLoads      3965058                       # Number of loads squashed
system.cpu1.iew.lsq.thread0.squashedStores       657167                       # Number of stores squashed
system.cpu1.iew.memOrderViolationEvents          1944                       # Number of memory order violations
system.cpu1.iew.predictedNotTakenIncorrect       540878                       # Number of branches that were predicted not taken incorrectly
system.cpu1.iew.predictedTakenIncorrect       1504718                       # Number of branches that were predicted taken incorrectly
system.cpu1.iew.wb_consumers                 76796013                       # num instructions consuming a value
system.cpu1.iew.wb_count                    130918197                       # cumulative count of insts written-back
system.cpu1.iew.wb_fanout                    0.841212                       # average fanout of values written-back
system.cpu1.iew.wb_producers                 64601745                       # num instructions producing a value
system.cpu1.iew.wb_rate                      0.276778                       # insts written-back per cycle
system.cpu1.iew.wb_sent                     130976764                       # cumulative count of insts sent to commit
system.cpu1.int_regfile_reads               167992722                       # number of integer regfile reads
system.cpu1.int_regfile_writes               88048757                       # number of integer regfile writes
system.cpu1.ipc                              0.253807                       # IPC: Instructions Per Cycle
system.cpu1.ipc_total                        0.253807                       # IPC: Total IPC of All Threads
system.cpu1.iq.FU_type_0::No_OpClass          4200208      3.12%      3.12% # Type of FU issued
system.cpu1.iq.FU_type_0::IntAlu             84582892     62.93%     66.05% # Type of FU issued
system.cpu1.iq.FU_type_0::IntMult                  48      0.00%     66.05% # Type of FU issued
system.cpu1.iq.FU_type_0::IntDiv                   88      0.00%     66.05% # Type of FU issued
system.cpu1.iq.FU_type_0::FloatAdd                  0      0.00%     66.05% # Type of FU issued
system.cpu1.iq.FU_type_0::FloatCmp                  0      0.00%     66.05% # Type of FU issued
system.cpu1.iq.FU_type_0::FloatCvt                  0      0.00%     66.05% # Type of FU issued
system.cpu1.iq.FU_type_0::FloatMult                 0      0.00%     66.05% # Type of FU issued
system.cpu1.iq.FU_type_0::FloatMultAcc              0      0.00%     66.05% # Type of FU issued
system.cpu1.iq.FU_type_0::FloatDiv                  0      0.00%     66.05% # Type of FU issued
system.cpu1.iq.FU_type_0::FloatMisc                 0      0.00%     66.05% # Type of FU issued
system.cpu1.iq.FU_type_0::FloatSqrt                 0      0.00%     66.05% # Type of FU issued
system.cpu1.iq.FU_type_0::SimdAdd                   0      0.00%     66.05% # Type of FU issued
system.cpu1.iq.FU_type_0::SimdAddAcc                0      0.00%     66.05% # Type of FU issued
system.cpu1.iq.FU_type_0::SimdAlu                   0      0.00%     66.05% # Type of FU issued
system.cpu1.iq.FU_type_0::SimdCmp                   0      0.00%     66.05% # Type of FU issued
system.cpu1.iq.FU_type_0::SimdCvt                   0      0.00%     66.05% # Type of FU issued
system.cpu1.iq.FU_type_0::SimdMisc                  0      0.00%     66.05% # Type of FU issued
system.cpu1.iq.FU_type_0::SimdMult                  0      0.00%     66.05% # Type of FU issued
system.cpu1.iq.FU_type_0::SimdMultAcc               0      0.00%     66.05% # Type of FU issued
system.cpu1.iq.FU_type_0::SimdShift                 0      0.00%     66.05% # Type of FU issued
system.cpu1.iq.FU_type_0::SimdShiftAcc              0      0.00%     66.05% # Type of FU issued
system.cpu1.iq.FU_type_0::SimdDiv                   0      0.00%     66.05% # Type of FU issued
system.cpu1.iq.FU_type_0::SimdSqrt                  0      0.00%     66.05% # Type of FU issued
system.cpu1.iq.FU_type_0::SimdFloatAdd              0      0.00%     66.05% # Type of FU issued
system.cpu1.iq.FU_type_0::SimdFloatAlu              0      0.00%     66.05% # Type of FU issued
system.cpu1.iq.FU_type_0::SimdFloatCmp              0      0.00%     66.05% # Type of FU issued
system.cpu1.iq.FU_type_0::SimdFloatCvt              0      0.00%     66.05% # Type of FU issued
system.cpu1.iq.FU_type_0::SimdFloatDiv              0      0.00%     66.05% # Type of FU issued
system.cpu1.iq.FU_type_0::SimdFloatMisc             0      0.00%     66.05% # Type of FU issued
system.cpu1.iq.FU_type_0::SimdFloatMult             0      0.00%     66.05% # Type of FU issued
system.cpu1.iq.FU_type_0::SimdFloatMultAcc            0      0.00%     66.05% # Type of FU issued
system.cpu1.iq.FU_type_0::SimdFloatSqrt             0      0.00%     66.05% # Type of FU issued
system.cpu1.iq.FU_type_0::SimdReduceAdd             0      0.00%     66.05% # Type of FU issued
system.cpu1.iq.FU_type_0::SimdReduceAlu             0      0.00%     66.05% # Type of FU issued
system.cpu1.iq.FU_type_0::SimdReduceCmp             0      0.00%     66.05% # Type of FU issued
system.cpu1.iq.FU_type_0::SimdFloatReduceAdd            0      0.00%     66.05% # Type of FU issued
system.cpu1.iq.FU_type_0::SimdFloatReduceCmp            0      0.00%     66.05% # Type of FU issued
system.cpu1.iq.FU_type_0::SimdAes                   0      0.00%     66.05% # Type of FU issued
system.cpu1.iq.FU_type_0::SimdAesMix                0      0.00%     66.05% # Type of FU issued
system.cpu1.iq.FU_type_0::SimdSha1Hash              0      0.00%     66.05% # Type of FU issued
system.cpu1.iq.FU_type_0::SimdSha1Hash2             0      0.00%     66.05% # Type of FU issued
system.cpu1.iq.FU_type_0::SimdSha256Hash            0      0.00%     66.05% # Type of FU issued
system.cpu1.iq.FU_type_0::SimdSha256Hash2            0      0.00%     66.05% # Type of FU issued
system.cpu1.iq.FU_type_0::SimdShaSigma2             0      0.00%     66.05% # Type of FU issued
system.cpu1.iq.FU_type_0::SimdShaSigma3             0      0.00%     66.05% # Type of FU issued
system.cpu1.iq.FU_type_0::SimdPredAlu               0      0.00%     66.05% # Type of FU issued
system.cpu1.iq.FU_type_0::MemRead            36205406     26.94%     92.99% # Type of FU issued
system.cpu1.iq.FU_type_0::MemWrite            9423833      7.01%    100.00% # Type of FU issued
system.cpu1.iq.FU_type_0::FloatMemRead              0      0.00%    100.00% # Type of FU issued
system.cpu1.iq.FU_type_0::FloatMemWrite            12      0.00%    100.00% # Type of FU issued
system.cpu1.iq.FU_type_0::IprAccess                 0      0.00%    100.00% # Type of FU issued
system.cpu1.iq.FU_type_0::InstPrefetch              0      0.00%    100.00% # Type of FU issued
system.cpu1.iq.FU_type_0::total             134412487                       # Type of FU issued
system.cpu1.iq.fp_alu_accesses                     14                       # Number of floating point alu accesses
system.cpu1.iq.fp_inst_queue_reads                 26                       # Number of floating instruction queue reads
system.cpu1.iq.fp_inst_queue_wakeup_accesses           12                       # Number of floating instruction queue wakeup accesses
system.cpu1.iq.fp_inst_queue_writes                12                       # Number of floating instruction queue writes
system.cpu1.iq.fu_busy_cnt                    2940367                       # FU busy when requested
system.cpu1.iq.fu_busy_rate                  0.021876                       # FU busy rate (busy events/executed inst)
system.cpu1.iq.fu_full::No_OpClass                  0      0.00%      0.00% # attempts to use FU when none available
system.cpu1.iq.fu_full::IntAlu                 636320     21.64%     21.64% # attempts to use FU when none available
system.cpu1.iq.fu_full::IntMult                     0      0.00%     21.64% # attempts to use FU when none available
system.cpu1.iq.fu_full::IntDiv                      0      0.00%     21.64% # attempts to use FU when none available
system.cpu1.iq.fu_full::FloatAdd                    0      0.00%     21.64% # attempts to use FU when none available
system.cpu1.iq.fu_full::FloatCmp                    0      0.00%     21.64% # attempts to use FU when none available
system.cpu1.iq.fu_full::FloatCvt                    0      0.00%     21.64% # attempts to use FU when none available
system.cpu1.iq.fu_full::FloatMult                   0      0.00%     21.64% # attempts to use FU when none available
system.cpu1.iq.fu_full::FloatMultAcc                0      0.00%     21.64% # attempts to use FU when none available
system.cpu1.iq.fu_full::FloatDiv                    0      0.00%     21.64% # attempts to use FU when none available
system.cpu1.iq.fu_full::FloatMisc                   0      0.00%     21.64% # attempts to use FU when none available
system.cpu1.iq.fu_full::FloatSqrt                   0      0.00%     21.64% # attempts to use FU when none available
system.cpu1.iq.fu_full::SimdAdd                     0      0.00%     21.64% # attempts to use FU when none available
system.cpu1.iq.fu_full::SimdAddAcc                  0      0.00%     21.64% # attempts to use FU when none available
system.cpu1.iq.fu_full::SimdAlu                     0      0.00%     21.64% # attempts to use FU when none available
system.cpu1.iq.fu_full::SimdCmp                     0      0.00%     21.64% # attempts to use FU when none available
system.cpu1.iq.fu_full::SimdCvt                     0      0.00%     21.64% # attempts to use FU when none available
system.cpu1.iq.fu_full::SimdMisc                    0      0.00%     21.64% # attempts to use FU when none available
system.cpu1.iq.fu_full::SimdMult                    0      0.00%     21.64% # attempts to use FU when none available
system.cpu1.iq.fu_full::SimdMultAcc                 0      0.00%     21.64% # attempts to use FU when none available
system.cpu1.iq.fu_full::SimdShift                   0      0.00%     21.64% # attempts to use FU when none available
system.cpu1.iq.fu_full::SimdShiftAcc                0      0.00%     21.64% # attempts to use FU when none available
system.cpu1.iq.fu_full::SimdDiv                     0      0.00%     21.64% # attempts to use FU when none available
system.cpu1.iq.fu_full::SimdSqrt                    0      0.00%     21.64% # attempts to use FU when none available
system.cpu1.iq.fu_full::SimdFloatAdd                0      0.00%     21.64% # attempts to use FU when none available
system.cpu1.iq.fu_full::SimdFloatAlu                0      0.00%     21.64% # attempts to use FU when none available
system.cpu1.iq.fu_full::SimdFloatCmp                0      0.00%     21.64% # attempts to use FU when none available
system.cpu1.iq.fu_full::SimdFloatCvt                0      0.00%     21.64% # attempts to use FU when none available
system.cpu1.iq.fu_full::SimdFloatDiv                0      0.00%     21.64% # attempts to use FU when none available
system.cpu1.iq.fu_full::SimdFloatMisc               0      0.00%     21.64% # attempts to use FU when none available
system.cpu1.iq.fu_full::SimdFloatMult               0      0.00%     21.64% # attempts to use FU when none available
system.cpu1.iq.fu_full::SimdFloatMultAcc            0      0.00%     21.64% # attempts to use FU when none available
system.cpu1.iq.fu_full::SimdFloatSqrt               0      0.00%     21.64% # attempts to use FU when none available
system.cpu1.iq.fu_full::SimdReduceAdd               0      0.00%     21.64% # attempts to use FU when none available
system.cpu1.iq.fu_full::SimdReduceAlu               0      0.00%     21.64% # attempts to use FU when none available
system.cpu1.iq.fu_full::SimdReduceCmp               0      0.00%     21.64% # attempts to use FU when none available
system.cpu1.iq.fu_full::SimdFloatReduceAdd            0      0.00%     21.64% # attempts to use FU when none available
system.cpu1.iq.fu_full::SimdFloatReduceCmp            0      0.00%     21.64% # attempts to use FU when none available
system.cpu1.iq.fu_full::SimdAes                     0      0.00%     21.64% # attempts to use FU when none available
system.cpu1.iq.fu_full::SimdAesMix                  0      0.00%     21.64% # attempts to use FU when none available
system.cpu1.iq.fu_full::SimdSha1Hash                0      0.00%     21.64% # attempts to use FU when none available
system.cpu1.iq.fu_full::SimdSha1Hash2               0      0.00%     21.64% # attempts to use FU when none available
system.cpu1.iq.fu_full::SimdSha256Hash              0      0.00%     21.64% # attempts to use FU when none available
system.cpu1.iq.fu_full::SimdSha256Hash2             0      0.00%     21.64% # attempts to use FU when none available
system.cpu1.iq.fu_full::SimdShaSigma2               0      0.00%     21.64% # attempts to use FU when none available
system.cpu1.iq.fu_full::SimdShaSigma3               0      0.00%     21.64% # attempts to use FU when none available
system.cpu1.iq.fu_full::SimdPredAlu                 0      0.00%     21.64% # attempts to use FU when none available
system.cpu1.iq.fu_full::MemRead               1837409     62.49%     84.13% # attempts to use FU when none available
system.cpu1.iq.fu_full::MemWrite               466636     15.87%    100.00% # attempts to use FU when none available
[...]
system.cpu1.dcache.WriteReq_hits::.cpu1.data      4925345                       # number of WriteReq hits
system.cpu1.dcache.WriteReq_hits::total       4925345                       # number of WriteReq hits
system.cpu1.dcache.WriteReq_misses::.cpu1.data      8868556                       # number of WriteReq misses
system.cpu1.dcache.WriteReq_misses::total      8868556                       # number of WriteReq misses
system.cpu1.dcache.WriteReq_miss_latency::.cpu1.data 531802002318                       # number of WriteReq miss cycles
system.cpu1.dcache.WriteReq_miss_latency::total 531802002318                       # number of WriteReq miss cycles
system.cpu1.dcache.WriteReq_accesses::.cpu1.data     13793901                       # number of WriteReq accesses(hits+misses)
system.cpu1.dcache.WriteReq_accesses::total     13793901                       # number of WriteReq accesses(hits+misses)
system.cpu1.dcache.WriteReq_miss_rate::.cpu1.data     0.642933                       # miss rate for WriteReq accesses
system.cpu1.dcache.WriteReq_miss_rate::total     0.642933                       # miss rate for WriteReq accesses
system.cpu1.dcache.WriteReq_avg_miss_latency::.cpu1.data 59964.891953                       # average WriteReq miss latency
system.cpu1.dcache.WriteReq_avg_miss_latency::total 59964.891953                       # average WriteReq miss latency
system.cpu1.dcache.WriteReq_mshr_hits::.cpu1.data      7975084                       # number of WriteReq MSHR hits
system.cpu1.dcache.WriteReq_mshr_hits::total      7975084                       # number of WriteReq MSHR hits
system.cpu1.dcache.WriteReq_mshr_misses::.cpu1.data       893472                       # number of WriteReq MSHR misses
system.cpu1.dcache.WriteReq_mshr_misses::total       893472                       # number of WriteReq MSHR misses
system.cpu1.dcache.WriteReq_mshr_miss_latency::.cpu1.data  64425817173                       # number of WriteReq MSHR miss cycles
system.cpu1.dcache.WriteReq_mshr_miss_latency::total  64425817173                       # number of WriteReq MSHR miss cycles
system.cpu1.dcache.WriteReq_mshr_miss_rate::.cpu1.data     0.064773                       # mshr miss rate for WriteReq accesses
system.cpu1.dcache.WriteReq_mshr_miss_rate::total     0.064773                       # mshr miss rate for WriteReq accesses
system.cpu1.dcache.WriteReq_avg_mshr_miss_latency::.cpu1.data 72107.259291                       # average WriteReq mshr miss latency
system.cpu1.dcache.WriteReq_avg_mshr_miss_latency::total 72107.259291                       # average WriteReq mshr miss latency
system.cpu1.dcache.LoadLockedReq_hits::.cpu1.data        73262                       # number of LoadLockedReq hits
system.cpu1.dcache.LoadLockedReq_hits::total        73262                       # number of LoadLockedReq hits
system.cpu1.dcache.LoadLockedReq_misses::.cpu1.data          816                       # number of LoadLockedReq misses
system.cpu1.dcache.LoadLockedReq_misses::total          816                       # number of LoadLockedReq misses
system.cpu1.dcache.LoadLockedReq_miss_latency::.cpu1.data     28792500                       # number of LoadLockedReq miss cycles
system.cpu1.dcache.LoadLockedReq_miss_latency::total     28792500                       # number of LoadLockedReq miss cycles
system.cpu1.dcache.LoadLockedReq_accesses::.cpu1.data        74078                       # number of LoadLockedReq accesses(hits+misses)
system.cpu1.dcache.LoadLockedReq_accesses::total        74078                       # number of LoadLockedReq accesses(hits+misses)
system.cpu1.dcache.LoadLockedReq_miss_rate::.cpu1.data     0.011015                       # miss rate for LoadLockedReq accesses
system.cpu1.dcache.LoadLockedReq_miss_rate::total     0.011015                       # miss rate for LoadLockedReq accesses
system.cpu1.dcache.LoadLockedReq_avg_miss_latency::.cpu1.data 35284.926471                       # average LoadLockedReq miss latency
system.cpu1.dcache.LoadLockedReq_avg_miss_latency::total 35284.926471                       # average LoadLockedReq miss latency
system.cpu1.dcache.LoadLockedReq_mshr_hits::.cpu1.data          158                       # number of LoadLockedReq MSHR hits
system.cpu1.dcache.LoadLockedReq_mshr_hits::total          158                       # number of LoadLockedReq MSHR hits
system.cpu1.dcache.LoadLockedReq_mshr_misses::.cpu1.data          658                       # number of LoadLockedReq MSHR misses
system.cpu1.dcache.LoadLockedReq_mshr_misses::total          658                       # number of LoadLockedReq MSHR misses
system.cpu1.dcache.LoadLockedReq_mshr_miss_latency::.cpu1.data     22599000                       # number of LoadLockedReq MSHR miss cycles
system.cpu1.dcache.LoadLockedReq_mshr_miss_latency::total     22599000                       # number of LoadLockedReq MSHR miss cycles
system.cpu1.dcache.LoadLockedReq_mshr_miss_rate::.cpu1.data     0.008883                       # mshr miss rate for LoadLockedReq accesses
system.cpu1.dcache.LoadLockedReq_mshr_miss_rate::total     0.008883                       # mshr miss rate for LoadLockedReq accesses
system.cpu1.dcache.LoadLockedReq_avg_mshr_miss_latency::.cpu1.data 34344.984802                       # average LoadLockedReq mshr miss latency
system.cpu1.dcache.LoadLockedReq_avg_mshr_miss_latency::total 34344.984802                       # average LoadLockedReq mshr miss latency
system.cpu1.dcache.StoreCondReq_hits::.cpu1.data        70952                       # number of StoreCondReq hits
system.cpu1.dcache.StoreCondReq_hits::total        70952                       # number of StoreCondReq hits
system.cpu1.dcache.StoreCondReq_misses::.cpu1.data         1813                       # number of StoreCondReq misses
system.cpu1.dcache.StoreCondReq_misses::total         1813                       # number of StoreCondReq misses
system.cpu1.dcache.StoreCondReq_miss_latency::.cpu1.data     12568000                       # number of StoreCondReq miss cycles
system.cpu1.dcache.StoreCondReq_miss_latency::total     12568000                       # number of StoreCondReq miss cycles
system.cpu1.dcache.StoreCondReq_accesses::.cpu1.data        72765                       # number of StoreCondReq accesses(hits+misses)
system.cpu1.dcache.StoreCondReq_accesses::total        72765                       # number of StoreCondReq accesses(hits+misses)
system.cpu1.dcache.StoreCondReq_miss_rate::.cpu1.data     0.024916                       # miss rate for StoreCondReq accesses
system.cpu1.dcache.StoreCondReq_miss_rate::total     0.024916                       # miss rate for StoreCondReq accesses
system.cpu1.dcache.StoreCondReq_avg_miss_latency::.cpu1.data  6932.156646                       # average StoreCondReq miss latency
system.cpu1.dcache.StoreCondReq_avg_miss_latency::total  6932.156646                       # average StoreCondReq miss latency
system.cpu1.dcache.StoreCondReq_mshr_misses::.cpu1.data         1810                       # number of StoreCondReq MSHR misses
system.cpu1.dcache.StoreCondReq_mshr_misses::total         1810                       # number of StoreCondReq MSHR misses
system.cpu1.dcache.StoreCondReq_mshr_miss_latency::.cpu1.data     10794000                       # number of StoreCondReq MSHR miss cycles
system.cpu1.dcache.StoreCondReq_mshr_miss_latency::total     10794000                       # number of StoreCondReq MSHR miss cycles
system.cpu1.dcache.StoreCondReq_mshr_miss_rate::.cpu1.data     0.024875                       # mshr miss rate for StoreCondReq accesses
system.cpu1.dcache.StoreCondReq_mshr_miss_rate::total     0.024875                       # mshr miss rate for StoreCondReq accesses
system.cpu1.dcache.StoreCondReq_avg_mshr_miss_latency::.cpu1.data  5963.535912                       # average StoreCondReq mshr miss latency
system.cpu1.dcache.StoreCondReq_avg_mshr_miss_latency::total  5963.535912                       # average StoreCondReq mshr miss latency
system.cpu1.dcache.StoreCondFailReq_miss_latency::.cpu1.data       672000                       # number of StoreCondFailReq miss cycles
system.cpu1.dcache.StoreCondFailReq_miss_latency::total       672000                       # number of StoreCondFailReq miss cycles
system.cpu1.dcache.StoreCondFailReq_avg_miss_latency::.cpu1.data          inf                       # average StoreCondFailReq miss latency
system.cpu1.dcache.StoreCondFailReq_avg_miss_latency::total          inf                       # average StoreCondFailReq miss latency
system.cpu1.dcache.StoreCondFailReq_mshr_miss_latency::.cpu1.data       636000                       # number of StoreCondFailReq MSHR miss cycles
system.cpu1.dcache.StoreCondFailReq_mshr_miss_latency::total       636000                       # number of StoreCondFailReq MSHR miss cycles
system.cpu1.dcache.StoreCondFailReq_avg_mshr_miss_latency::.cpu1.data          inf                       # average StoreCondFailReq mshr miss latency
system.cpu1.dcache.StoreCondFailReq_avg_mshr_miss_latency::total          inf                       # average StoreCondFailReq mshr miss latency
system.cpu1.dcache.SwapReq_hits::.cpu1.data         9513                       # number of SwapReq hits
system.cpu1.dcache.SwapReq_hits::total           9513                       # number of SwapReq hits
system.cpu1.dcache.SwapReq_misses::.cpu1.data        32096                       # number of SwapReq misses
system.cpu1.dcache.SwapReq_misses::total        32096                       # number of SwapReq misses
system.cpu1.dcache.SwapReq_miss_latency::.cpu1.data   2959739831                       # number of SwapReq miss cycles
system.cpu1.dcache.SwapReq_miss_latency::total   2959739831                       # number of SwapReq miss cycles
system.cpu1.dcache.SwapReq_accesses::.cpu1.data        41609                       # number of SwapReq accesses(hits+misses)
system.cpu1.dcache.SwapReq_accesses::total        41609                       # number of SwapReq accesses(hits+misses)
system.cpu1.dcache.SwapReq_miss_rate::.cpu1.data     0.771372                       # miss rate for SwapReq accesses
system.cpu1.dcache.SwapReq_miss_rate::total     0.771372                       # miss rate for SwapReq accesses
system.cpu1.dcache.SwapReq_avg_miss_latency::.cpu1.data 92215.224047                       # average SwapReq miss latency
system.cpu1.dcache.SwapReq_avg_miss_latency::total 92215.224047                       # average SwapReq miss latency
system.cpu1.dcache.SwapReq_mshr_hits::.cpu1.data            4                       # number of SwapReq MSHR hits
system.cpu1.dcache.SwapReq_mshr_hits::total            4                       # number of SwapReq MSHR hits
system.cpu1.dcache.SwapReq_mshr_misses::.cpu1.data        32092                       # number of SwapReq MSHR misses
system.cpu1.dcache.SwapReq_mshr_misses::total        32092                       # number of SwapReq MSHR misses
system.cpu1.dcache.SwapReq_mshr_miss_latency::.cpu1.data   2927640331                       # number of SwapReq MSHR miss cycles
system.cpu1.dcache.SwapReq_mshr_miss_latency::total   2927640331                       # number of SwapReq MSHR miss cycles
system.cpu1.dcache.SwapReq_mshr_miss_rate::.cpu1.data     0.771275                       # mshr miss rate for SwapReq accesses
system.cpu1.dcache.SwapReq_mshr_miss_rate::total     0.771275                       # mshr miss rate for SwapReq accesses
system.cpu1.dcache.SwapReq_avg_mshr_miss_latency::.cpu1.data 91226.484202                       # average SwapReq mshr miss latency
system.cpu1.dcache.SwapReq_avg_mshr_miss_latency::total 91226.484202                       # average SwapReq mshr miss latency
system.cpu1.dcache.tags.pwrStateResidencyTicks::UNDEFINED 139093719000                       # Cumulative time (in ticks) in various power states
system.cpu1.dcache.tags.tagsinuse           31.848535                       # Cycle average of tags in use
system.cpu1.dcache.tags.total_refs           18067448                       # Total number of references to valid blocks.
system.cpu1.dcache.tags.sampled_refs          1685035                       # Sample count of references to valid blocks.
system.cpu1.dcache.tags.avg_refs            10.722298                       # Average number of references to valid blocks.
system.cpu1.dcache.tags.warmup_cycle                0                       # Cycle when the warmup percentage was hit.
system.cpu1.dcache.tags.occ_blocks::.cpu1.data    31.848535                       # Average occupied blocks per requestor
system.cpu1.dcache.tags.occ_percent::.cpu1.data     0.995267                       # Average percentage of cache occupancy
system.cpu1.dcache.tags.occ_percent::total     0.995267                       # Average percentage of cache occupancy
system.cpu1.dcache.tags.occ_task_id_blocks::1024           27                       # Occupied blocks per task id
system.cpu1.dcache.tags.age_task_id_blocks_1024::1           27                       # Occupied blocks per task id
system.cpu1.dcache.tags.occ_task_id_percent::1024     0.843750                       # Percentage of cache occupancy per task id
system.cpu1.dcache.tags.tag_accesses         60622497                       # Number of tag accesses
system.cpu1.dcache.tags.data_accesses        60622497                       # Number of data accesses
system.cpu_clk_domain.clock                       500                       # Clock period in ticks
system.tol2bus.pwrStateResidencyTicks::UNDEFINED 139093719000                       # Cumulative time (in ticks) in various power states
system.tol2bus.trans_dist::ReadResp           1631551                       # Transaction distribution
system.tol2bus.trans_dist::WritebackDirty      4870350                       # Transaction distribution
system.tol2bus.trans_dist::WritebackClean      1051242                       # Transaction distribution
system.tol2bus.trans_dist::CleanEvict         4154450                       # Transaction distribution
system.tol2bus.trans_dist::HardPFReq          2125510                       # Transaction distribution
system.tol2bus.trans_dist::UpgradeReq            6438                       # Transaction distribution
system.tol2bus.trans_dist::SCUpgradeReq          3655                       # Transaction distribution
system.tol2bus.trans_dist::UpgradeResp          10093                       # Transaction distribution
system.tol2bus.trans_dist::SCUpgradeFailReq           75                       # Transaction distribution
system.tol2bus.trans_dist::UpgradeFailResp           75                       # Transaction distribution
system.tol2bus.trans_dist::ReadExReq          1882104                       # Transaction distribution
system.tol2bus.trans_dist::ReadExResp         1882104                       # Transaction distribution
system.tol2bus.trans_dist::ReadCleanReq         98655                       # Transaction distribution
system.tol2bus.trans_dist::ReadSharedReq      1532898                       # Transaction distribution
system.tol2bus.trans_dist::InvalidateReq         2640                       # Transaction distribution
system.tol2bus.trans_dist::InvalidateResp         2640                       # Transaction distribution
system.tol2bus.pkt_count_system.cpu0.icache.mem_side::system.l2.cpu_side       203021                       # Packet count per connected master and slave (bytes)
system.tol2bus.pkt_count_system.cpu0.dcache.mem_side::system.l2.cpu_side      5190758                       # Packet count per connected master and slave (bytes)
system.tol2bus.pkt_count_system.cpu1.icache.mem_side::system.l2.cpu_side        92940                       # Packet count per connected master and slave (bytes)
system.tol2bus.pkt_count_system.cpu1.dcache.mem_side::system.l2.cpu_side      5047800                       # Packet count per connected master and slave (bytes)
system.tol2bus.pkt_count::total              10534519                       # Packet count per connected master and slave (bytes)
system.tol2bus.pkt_size_system.cpu0.icache.mem_side::system.l2.cpu_side      8662144                       # Cumulative packet size per connected master and slave (bytes)
system.tol2bus.pkt_size_system.cpu0.dcache.mem_side::system.l2.cpu_side    220797568                       # Cumulative packet size per connected master and slave (bytes)
system.tol2bus.pkt_size_system.cpu1.icache.mem_side::system.l2.cpu_side      3965440                       # Cumulative packet size per connected master and slave (bytes)
system.tol2bus.pkt_size_system.cpu1.dcache.mem_side::system.l2.cpu_side    214767040                       # Cumulative packet size per connected master and slave (bytes)
system.tol2bus.pkt_size::total              448192192                       # Cumulative packet size per connected master and slave (bytes)
system.tol2bus.snoops                         8719961                       # Total snoops (count)
system.tol2bus.snoopTraffic                 155668416                       # Total snoop traffic (bytes)
system.tol2bus.snoop_fanout::samples         12230043                       # Request fanout histogram
system.tol2bus.snoop_fanout::mean            0.268521                       # Request fanout histogram
system.tol2bus.snoop_fanout::stdev           0.449143                       # Request fanout histogram
system.tol2bus.snoop_fanout::underflows             0      0.00%      0.00% # Request fanout histogram
system.tol2bus.snoop_fanout::0                8978510     73.41%     73.41% # Request fanout histogram
system.tol2bus.snoop_fanout::1                3219048     26.32%     99.73% # Request fanout histogram
system.tol2bus.snoop_fanout::2                  32485      0.27%    100.00% # Request fanout histogram
system.tol2bus.snoop_fanout::3                      0      0.00%    100.00% # Request fanout histogram
system.tol2bus.snoop_fanout::4                      0      0.00%    100.00% # Request fanout histogram
system.tol2bus.snoop_fanout::5                      0      0.00%    100.00% # Request fanout histogram
system.tol2bus.snoop_fanout::6                      0      0.00%    100.00% # Request fanout histogram
system.tol2bus.snoop_fanout::7                      0      0.00%    100.00% # Request fanout histogram
system.tol2bus.snoop_fanout::8                      0      0.00%    100.00% # Request fanout histogram
system.tol2bus.snoop_fanout::overflows              0      0.00%    100.00% # Request fanout histogram
system.tol2bus.snoop_fanout::min_value              0                       # Request fanout histogram
system.tol2bus.snoop_fanout::max_value              2                       # Request fanout histogram
system.tol2bus.snoop_fanout::total           12230043                       # Request fanout histogram
system.tol2bus.reqLayer0.occupancy         7025484030                       # Layer occupancy (ticks)
system.tol2bus.reqLayer0.utilization              5.1                       # Layer utilization (%)
system.tol2bus.respLayer1.occupancy        2603505164                       # Layer occupancy (ticks)
system.tol2bus.respLayer1.utilization             1.9                       # Layer utilization (%)
system.tol2bus.respLayer0.occupancy         101972076                       # Layer occupancy (ticks)
system.tol2bus.respLayer0.utilization             0.1                       # Layer utilization (%)
system.tol2bus.respLayer3.occupancy        2532727885                       # Layer occupancy (ticks)
system.tol2bus.respLayer3.utilization             1.8                       # Layer utilization (%)
system.tol2bus.respLayer2.occupancy          46855727                       # Layer occupancy (ticks)
system.tol2bus.respLayer2.utilization             0.0                       # Layer utilization (%)

---------- End Simulation Statistics   ----------
