
---------- Begin Simulation Statistics ----------
<<<<<<< HEAD
final_tick                               496445179500                       # Number of ticks from beginning of simulation (restored from checkpoints and never reset)
host_inst_rate                                  94853                       # Simulator instruction rate (inst/s)
host_mem_usage                                 738824                       # Number of bytes of host memory used
host_op_rate                                    95168                       # Simulator op (including micro ops) rate (op/s)
host_seconds                                  6467.20                       # Real time elapsed on the host
host_tick_rate                               76763589                       # Simulator tick rate (ticks/s)
sim_freq                                 1000000000000                       # Frequency of simulated ticks
sim_insts                                   613434075                       # Number of instructions simulated
sim_ops                                     615472831                       # Number of ops (including micro ops) simulated
sim_seconds                                  0.496445                       # Number of seconds simulated
sim_ticks                                496445179500                       # Number of ticks simulated
system.cpu0.branchPred.BTBCorrect                   0                       # Number of correct BTB predictions (this stat may not work properly.
system.cpu0.branchPred.BTBHitPct            86.661324                       # BTB Hit Percentage
system.cpu0.branchPred.BTBHits               77420459                       # Number of BTB hits
system.cpu0.branchPred.BTBLookups            89336806                       # Number of BTB lookups
system.cpu0.branchPred.RASInCorrect                 0                       # Number of incorrect RAS predictions.
system.cpu0.branchPred.condIncorrect          8506212                       # Number of conditional branches incorrect
system.cpu0.branchPred.condPredicted        119815662                       # Number of conditional branches predicted
system.cpu0.branchPred.indirectHits          11665861                       # Number of indirect target hits.
system.cpu0.branchPred.indirectLookups       11773762                       # Number of indirect predictor lookups.
system.cpu0.branchPred.indirectMisses          107901                       # Number of indirect misses.
system.cpu0.branchPred.lookups              155496003                       # Number of BP lookups
system.cpu0.branchPred.usedRAS                      0                       # Number of times the RAS was used to get a target.
system.cpu0.branchPredindirectMispredicted      1052721                       # Number of mispredicted indirect branches.
system.cpu0.commit.amos                        509408                       # Number of atomic instructions committed
system.cpu0.commit.branchMispredicts          5601312                       # The number of times a branch was mispredicted
system.cpu0.commit.branches                 138979769                       # Number of branches committed
system.cpu0.commit.bw_lim_events             17499551                       # number cycles where commit BW limit reached
system.cpu0.commit.commitNonSpecStalls        1532377                       # The number of times commit has been forced to stall to communicate backwards
system.cpu0.commit.commitSquashedInsts       55120282                       # The number of squashed insts skipped by commit
system.cpu0.commit.committedInsts           561825323                       # Number of instructions committed
system.cpu0.commit.committedOps             562335994                       # Number of ops (including micro ops) committed
system.cpu0.commit.committed_per_cycle::samples    899610596                       # Number of insts commited each cycle
system.cpu0.commit.committed_per_cycle::mean     0.625088                       # Number of insts commited each cycle
system.cpu0.commit.committed_per_cycle::stdev     1.424504                       # Number of insts commited each cycle
system.cpu0.commit.committed_per_cycle::underflows            0      0.00%      0.00% # Number of insts commited each cycle
system.cpu0.commit.committed_per_cycle::0    636405985     70.74%     70.74% # Number of insts commited each cycle
system.cpu0.commit.committed_per_cycle::1    155917270     17.33%     88.07% # Number of insts commited each cycle
system.cpu0.commit.committed_per_cycle::2     35634507      3.96%     92.04% # Number of insts commited each cycle
system.cpu0.commit.committed_per_cycle::3     34755042      3.86%     95.90% # Number of insts commited each cycle
system.cpu0.commit.committed_per_cycle::4     11701016      1.30%     97.20% # Number of insts commited each cycle
system.cpu0.commit.committed_per_cycle::5      4380861      0.49%     97.69% # Number of insts commited each cycle
system.cpu0.commit.committed_per_cycle::6      1034741      0.12%     97.80% # Number of insts commited each cycle
system.cpu0.commit.committed_per_cycle::7      2281623      0.25%     98.05% # Number of insts commited each cycle
system.cpu0.commit.committed_per_cycle::8     17499551      1.95%    100.00% # Number of insts commited each cycle
system.cpu0.commit.committed_per_cycle::overflows            0      0.00%    100.00% # Number of insts commited each cycle
system.cpu0.commit.committed_per_cycle::min_value            0                       # Number of insts commited each cycle
system.cpu0.commit.committed_per_cycle::max_value            8                       # Number of insts commited each cycle
system.cpu0.commit.committed_per_cycle::total    899610596                       # Number of insts commited each cycle
system.cpu0.commit.fp_insts                        50                       # Number of committed floating point instructions.
system.cpu0.commit.function_calls            11672138                       # Number of function calls committed.
system.cpu0.commit.int_insts                543467509                       # Number of committed integer instructions.
system.cpu0.commit.loads                    174764343                       # Number of loads committed
system.cpu0.commit.membars                    1019954                       # Number of memory barriers committed
system.cpu0.commit.op_class_0::No_OpClass      1019960      0.18%      0.18% # Class of committed instruction
system.cpu0.commit.op_class_0::IntAlu       311070482     55.32%     55.50% # Class of committed instruction
system.cpu0.commit.op_class_0::IntMult        4137156      0.74%     56.23% # Class of committed instruction
system.cpu0.commit.op_class_0::IntDiv         1017773      0.18%     56.42% # Class of committed instruction
system.cpu0.commit.op_class_0::FloatAdd             0      0.00%     56.42% # Class of committed instruction
system.cpu0.commit.op_class_0::FloatCmp             4      0.00%     56.42% # Class of committed instruction
system.cpu0.commit.op_class_0::FloatCvt            12      0.00%     56.42% # Class of committed instruction
system.cpu0.commit.op_class_0::FloatMult            0      0.00%     56.42% # Class of committed instruction
system.cpu0.commit.op_class_0::FloatMultAcc            0      0.00%     56.42% # Class of committed instruction
system.cpu0.commit.op_class_0::FloatDiv             2      0.00%     56.42% # Class of committed instruction
system.cpu0.commit.op_class_0::FloatMisc            4      0.00%     56.42% # Class of committed instruction
system.cpu0.commit.op_class_0::FloatSqrt            0      0.00%     56.42% # Class of committed instruction
system.cpu0.commit.op_class_0::SimdAdd              0      0.00%     56.42% # Class of committed instruction
system.cpu0.commit.op_class_0::SimdAddAcc            0      0.00%     56.42% # Class of committed instruction
system.cpu0.commit.op_class_0::SimdAlu              0      0.00%     56.42% # Class of committed instruction
system.cpu0.commit.op_class_0::SimdCmp              0      0.00%     56.42% # Class of committed instruction
system.cpu0.commit.op_class_0::SimdCvt              0      0.00%     56.42% # Class of committed instruction
system.cpu0.commit.op_class_0::SimdMisc             0      0.00%     56.42% # Class of committed instruction
system.cpu0.commit.op_class_0::SimdMult             0      0.00%     56.42% # Class of committed instruction
system.cpu0.commit.op_class_0::SimdMultAcc            0      0.00%     56.42% # Class of committed instruction
system.cpu0.commit.op_class_0::SimdShift            0      0.00%     56.42% # Class of committed instruction
system.cpu0.commit.op_class_0::SimdShiftAcc            0      0.00%     56.42% # Class of committed instruction
system.cpu0.commit.op_class_0::SimdDiv              0      0.00%     56.42% # Class of committed instruction
system.cpu0.commit.op_class_0::SimdSqrt             0      0.00%     56.42% # Class of committed instruction
system.cpu0.commit.op_class_0::SimdFloatAdd            0      0.00%     56.42% # Class of committed instruction
system.cpu0.commit.op_class_0::SimdFloatAlu            0      0.00%     56.42% # Class of committed instruction
system.cpu0.commit.op_class_0::SimdFloatCmp            0      0.00%     56.42% # Class of committed instruction
system.cpu0.commit.op_class_0::SimdFloatCvt            0      0.00%     56.42% # Class of committed instruction
system.cpu0.commit.op_class_0::SimdFloatDiv            0      0.00%     56.42% # Class of committed instruction
system.cpu0.commit.op_class_0::SimdFloatMisc            0      0.00%     56.42% # Class of committed instruction
system.cpu0.commit.op_class_0::SimdFloatMult            0      0.00%     56.42% # Class of committed instruction
system.cpu0.commit.op_class_0::SimdFloatMultAcc            0      0.00%     56.42% # Class of committed instruction
system.cpu0.commit.op_class_0::SimdFloatSqrt            0      0.00%     56.42% # Class of committed instruction
system.cpu0.commit.op_class_0::SimdReduceAdd            0      0.00%     56.42% # Class of committed instruction
system.cpu0.commit.op_class_0::SimdReduceAlu            0      0.00%     56.42% # Class of committed instruction
system.cpu0.commit.op_class_0::SimdReduceCmp            0      0.00%     56.42% # Class of committed instruction
system.cpu0.commit.op_class_0::SimdFloatReduceAdd            0      0.00%     56.42% # Class of committed instruction
system.cpu0.commit.op_class_0::SimdFloatReduceCmp            0      0.00%     56.42% # Class of committed instruction
system.cpu0.commit.op_class_0::SimdAes              0      0.00%     56.42% # Class of committed instruction
system.cpu0.commit.op_class_0::SimdAesMix            0      0.00%     56.42% # Class of committed instruction
system.cpu0.commit.op_class_0::SimdSha1Hash            0      0.00%     56.42% # Class of committed instruction
system.cpu0.commit.op_class_0::SimdSha1Hash2            0      0.00%     56.42% # Class of committed instruction
system.cpu0.commit.op_class_0::SimdSha256Hash            0      0.00%     56.42% # Class of committed instruction
system.cpu0.commit.op_class_0::SimdSha256Hash2            0      0.00%     56.42% # Class of committed instruction
system.cpu0.commit.op_class_0::SimdShaSigma2            0      0.00%     56.42% # Class of committed instruction
system.cpu0.commit.op_class_0::SimdShaSigma3            0      0.00%     56.42% # Class of committed instruction
system.cpu0.commit.op_class_0::SimdPredAlu            0      0.00%     56.42% # Class of committed instruction
system.cpu0.commit.op_class_0::MemRead      175273743     31.17%     87.58% # Class of committed instruction
system.cpu0.commit.op_class_0::MemWrite      69816830     12.42%    100.00% # Class of committed instruction
=======
final_tick                               534644231500                       # Number of ticks from beginning of simulation (restored from checkpoints and never reset)
host_inst_rate                                  60938                       # Simulator instruction rate (inst/s)
host_mem_usage                                 701396                       # Number of bytes of host memory used
host_op_rate                                    61141                       # Simulator op (including micro ops) rate (op/s)
host_seconds                                 10052.22                       # Real time elapsed on the host
host_tick_rate                               53186689                       # Simulator tick rate (ticks/s)
sim_freq                                 1000000000000                       # Frequency of simulated ticks
sim_insts                                   612564179                       # Number of instructions simulated
sim_ops                                     614601755                       # Number of ops (including micro ops) simulated
sim_seconds                                  0.534644                       # Number of seconds simulated
sim_ticks                                534644231500                       # Number of ticks simulated
system.cpu0.branchPred.BTBCorrect                   0                       # Number of correct BTB predictions (this stat may not work properly.
system.cpu0.branchPred.BTBHitPct            87.502826                       # BTB Hit Percentage
system.cpu0.branchPred.BTBHits               79523642                       # Number of BTB hits
system.cpu0.branchPred.BTBLookups            90881227                       # Number of BTB lookups
system.cpu0.branchPred.RASInCorrect                 0                       # Number of incorrect RAS predictions.
system.cpu0.branchPred.condIncorrect          9318421                       # Number of conditional branches incorrect
system.cpu0.branchPred.condPredicted        122408058                       # Number of conditional branches predicted
system.cpu0.branchPred.indirectHits          10844999                       # Number of indirect target hits.
system.cpu0.branchPred.indirectLookups       11098735                       # Number of indirect predictor lookups.
system.cpu0.branchPred.indirectMisses          253736                       # Number of indirect misses.
system.cpu0.branchPred.lookups              156833325                       # Number of BP lookups
system.cpu0.branchPred.usedRAS                      0                       # Number of times the RAS was used to get a target.
system.cpu0.branchPredindirectMispredicted      1060749                       # Number of mispredicted indirect branches.
system.cpu0.commit.amos                       1018203                       # Number of atomic instructions committed
system.cpu0.commit.branchMispredicts          6082167                       # The number of times a branch was mispredicted
system.cpu0.commit.branches                 143206719                       # Number of branches committed
system.cpu0.commit.bw_lim_events             16325954                       # number cycles where commit BW limit reached
system.cpu0.commit.commitNonSpecStalls        3058470                       # The number of times commit has been forced to stall to communicate backwards
system.cpu0.commit.commitSquashedInsts       37080842                       # The number of squashed insts skipped by commit
system.cpu0.commit.committedInsts           580299655                       # Number of instructions committed
system.cpu0.commit.committedOps             581319136                       # Number of ops (including micro ops) committed
system.cpu0.commit.committed_per_cycle::samples    977859323                       # Number of insts commited each cycle
system.cpu0.commit.committed_per_cycle::mean     0.594481                       # Number of insts commited each cycle
system.cpu0.commit.committed_per_cycle::stdev     1.371976                       # Number of insts commited each cycle
system.cpu0.commit.committed_per_cycle::underflows            0      0.00%      0.00% # Number of insts commited each cycle
system.cpu0.commit.committed_per_cycle::0    701610483     71.75%     71.75% # Number of insts commited each cycle
system.cpu0.commit.committed_per_cycle::1    163248691     16.69%     88.44% # Number of insts commited each cycle
system.cpu0.commit.committed_per_cycle::2     38901677      3.98%     92.42% # Number of insts commited each cycle
system.cpu0.commit.committed_per_cycle::3     36774861      3.76%     96.18% # Number of insts commited each cycle
system.cpu0.commit.committed_per_cycle::4     12261159      1.25%     97.44% # Number of insts commited each cycle
system.cpu0.commit.committed_per_cycle::5      4258518      0.44%     97.87% # Number of insts commited each cycle
system.cpu0.commit.committed_per_cycle::6      2348210      0.24%     98.11% # Number of insts commited each cycle
system.cpu0.commit.committed_per_cycle::7      2129770      0.22%     98.33% # Number of insts commited each cycle
system.cpu0.commit.committed_per_cycle::8     16325954      1.67%    100.00% # Number of insts commited each cycle
system.cpu0.commit.committed_per_cycle::overflows            0      0.00%    100.00% # Number of insts commited each cycle
system.cpu0.commit.committed_per_cycle::min_value            0                       # Number of insts commited each cycle
system.cpu0.commit.committed_per_cycle::max_value            8                       # Number of insts commited each cycle
system.cpu0.commit.committed_per_cycle::total    977859323                       # Number of insts commited each cycle
system.cpu0.commit.fp_insts                        50                       # Number of committed floating point instructions.
system.cpu0.commit.function_calls            11887185                       # Number of function calls committed.
system.cpu0.commit.int_insts                561296545                       # Number of committed integer instructions.
system.cpu0.commit.loads                    179950788                       # Number of loads committed
system.cpu0.commit.membars                    2037577                       # Number of memory barriers committed
system.cpu0.commit.op_class_0::No_OpClass      2037583      0.35%      0.35% # Class of committed instruction
system.cpu0.commit.op_class_0::IntAlu       322238485     55.43%     55.78% # Class of committed instruction
system.cpu0.commit.op_class_0::IntMult        4137068      0.71%     56.49% # Class of committed instruction
system.cpu0.commit.op_class_0::IntDiv         1017773      0.18%     56.67% # Class of committed instruction
system.cpu0.commit.op_class_0::FloatAdd             0      0.00%     56.67% # Class of committed instruction
system.cpu0.commit.op_class_0::FloatCmp             4      0.00%     56.67% # Class of committed instruction
system.cpu0.commit.op_class_0::FloatCvt            12      0.00%     56.67% # Class of committed instruction
system.cpu0.commit.op_class_0::FloatMult            0      0.00%     56.67% # Class of committed instruction
system.cpu0.commit.op_class_0::FloatMultAcc            0      0.00%     56.67% # Class of committed instruction
system.cpu0.commit.op_class_0::FloatDiv             2      0.00%     56.67% # Class of committed instruction
system.cpu0.commit.op_class_0::FloatMisc            4      0.00%     56.67% # Class of committed instruction
system.cpu0.commit.op_class_0::FloatSqrt            0      0.00%     56.67% # Class of committed instruction
system.cpu0.commit.op_class_0::SimdAdd              0      0.00%     56.67% # Class of committed instruction
system.cpu0.commit.op_class_0::SimdAddAcc            0      0.00%     56.67% # Class of committed instruction
system.cpu0.commit.op_class_0::SimdAlu              0      0.00%     56.67% # Class of committed instruction
system.cpu0.commit.op_class_0::SimdCmp              0      0.00%     56.67% # Class of committed instruction
system.cpu0.commit.op_class_0::SimdCvt              0      0.00%     56.67% # Class of committed instruction
system.cpu0.commit.op_class_0::SimdMisc             0      0.00%     56.67% # Class of committed instruction
system.cpu0.commit.op_class_0::SimdMult             0      0.00%     56.67% # Class of committed instruction
system.cpu0.commit.op_class_0::SimdMultAcc            0      0.00%     56.67% # Class of committed instruction
system.cpu0.commit.op_class_0::SimdShift            0      0.00%     56.67% # Class of committed instruction
system.cpu0.commit.op_class_0::SimdShiftAcc            0      0.00%     56.67% # Class of committed instruction
system.cpu0.commit.op_class_0::SimdDiv              0      0.00%     56.67% # Class of committed instruction
system.cpu0.commit.op_class_0::SimdSqrt             0      0.00%     56.67% # Class of committed instruction
system.cpu0.commit.op_class_0::SimdFloatAdd            0      0.00%     56.67% # Class of committed instruction
system.cpu0.commit.op_class_0::SimdFloatAlu            0      0.00%     56.67% # Class of committed instruction
system.cpu0.commit.op_class_0::SimdFloatCmp            0      0.00%     56.67% # Class of committed instruction
system.cpu0.commit.op_class_0::SimdFloatCvt            0      0.00%     56.67% # Class of committed instruction
system.cpu0.commit.op_class_0::SimdFloatDiv            0      0.00%     56.67% # Class of committed instruction
system.cpu0.commit.op_class_0::SimdFloatMisc            0      0.00%     56.67% # Class of committed instruction
system.cpu0.commit.op_class_0::SimdFloatMult            0      0.00%     56.67% # Class of committed instruction
system.cpu0.commit.op_class_0::SimdFloatMultAcc            0      0.00%     56.67% # Class of committed instruction
system.cpu0.commit.op_class_0::SimdFloatSqrt            0      0.00%     56.67% # Class of committed instruction
system.cpu0.commit.op_class_0::SimdReduceAdd            0      0.00%     56.67% # Class of committed instruction
system.cpu0.commit.op_class_0::SimdReduceAlu            0      0.00%     56.67% # Class of committed instruction
system.cpu0.commit.op_class_0::SimdReduceCmp            0      0.00%     56.67% # Class of committed instruction
system.cpu0.commit.op_class_0::SimdFloatReduceAdd            0      0.00%     56.67% # Class of committed instruction
system.cpu0.commit.op_class_0::SimdFloatReduceCmp            0      0.00%     56.67% # Class of committed instruction
system.cpu0.commit.op_class_0::SimdAes              0      0.00%     56.67% # Class of committed instruction
system.cpu0.commit.op_class_0::SimdAesMix            0      0.00%     56.67% # Class of committed instruction
system.cpu0.commit.op_class_0::SimdSha1Hash            0      0.00%     56.67% # Class of committed instruction
system.cpu0.commit.op_class_0::SimdSha1Hash2            0      0.00%     56.67% # Class of committed instruction
system.cpu0.commit.op_class_0::SimdSha256Hash            0      0.00%     56.67% # Class of committed instruction
system.cpu0.commit.op_class_0::SimdSha256Hash2            0      0.00%     56.67% # Class of committed instruction
system.cpu0.commit.op_class_0::SimdShaSigma2            0      0.00%     56.67% # Class of committed instruction
system.cpu0.commit.op_class_0::SimdShaSigma3            0      0.00%     56.67% # Class of committed instruction
system.cpu0.commit.op_class_0::SimdPredAlu            0      0.00%     56.67% # Class of committed instruction
system.cpu0.commit.op_class_0::MemRead      180968983     31.13%     87.80% # Class of committed instruction
system.cpu0.commit.op_class_0::MemWrite      70919194     12.20%    100.00% # Class of committed instruction
>>>>>>> 6be7a0502e78ebf80a09b838e3e9c0d652379c93
system.cpu0.commit.op_class_0::FloatMemRead            8      0.00%    100.00% # Class of committed instruction
system.cpu0.commit.op_class_0::FloatMemWrite           20      0.00%    100.00% # Class of committed instruction
system.cpu0.commit.op_class_0::IprAccess            0      0.00%    100.00% # Class of committed instruction
system.cpu0.commit.op_class_0::InstPrefetch            0      0.00%    100.00% # Class of committed instruction
<<<<<<< HEAD
system.cpu0.commit.op_class_0::total        562335994                       # Class of committed instruction
system.cpu0.commit.refs                     245090601                       # Number of memory references committed
system.cpu0.commit.swp_count                        0                       # Number of s/w prefetches committed
system.cpu0.commit.vec_insts                        0                       # Number of committed Vector instructions.
system.cpu0.committedInsts                  561825323                       # Number of Instructions Simulated
system.cpu0.committedOps                    562335994                       # Number of Ops (including micro ops) Simulated
system.cpu0.cpi                              1.742923                       # CPI: Cycles Per Instruction
system.cpu0.cpi_total                        1.742923                       # CPI: Total CPI of All Threads
system.cpu0.decode.BlockedCycles            119643200                       # Number of cycles decode is blocked
system.cpu0.decode.BranchMispred              2909297                       # Number of times decode detected a branch misprediction
system.cpu0.decode.BranchResolved            75764216                       # Number of times decode resolved a branch
system.cpu0.decode.DecodedInsts             629929219                       # Number of instructions handled by decode
system.cpu0.decode.IdleCycles               347483304                       # Number of cycles decode is idle
system.cpu0.decode.RunCycles                435034184                       # Number of cycles decode is running
system.cpu0.decode.SquashCycles               5606498                       # Number of cycles decode is squashing
system.cpu0.decode.SquashedInsts              9539890                       # Number of squashed instructions handled by decode
system.cpu0.decode.UnblockCycles              2550611                       # Number of cycles decode is unblocking
=======
system.cpu0.commit.op_class_0::total        581319136                       # Class of committed instruction
system.cpu0.commit.refs                     251888205                       # Number of memory references committed
system.cpu0.commit.swp_count                        0                       # Number of s/w prefetches committed
system.cpu0.commit.vec_insts                        0                       # Number of committed Vector instructions.
system.cpu0.committedInsts                  580299655                       # Number of Instructions Simulated
system.cpu0.committedOps                    581319136                       # Number of Ops (including micro ops) Simulated
system.cpu0.cpi                              1.822626                       # CPI: Cycles Per Instruction
system.cpu0.cpi_total                        1.822626                       # CPI: Total CPI of All Threads
system.cpu0.decode.BlockedCycles            196198513                       # Number of cycles decode is blocked
system.cpu0.decode.BranchMispred              3246190                       # Number of times decode detected a branch misprediction
system.cpu0.decode.BranchResolved            78368238                       # Number of times decode resolved a branch
system.cpu0.decode.DecodedInsts             633887072                       # Number of instructions handled by decode
system.cpu0.decode.IdleCycles               352216565                       # Number of cycles decode is idle
system.cpu0.decode.RunCycles                429234547                       # Number of cycles decode is running
system.cpu0.decode.SquashCycles               6086919                       # Number of cycles decode is squashing
system.cpu0.decode.SquashedInsts              8806617                       # Number of squashed instructions handled by decode
system.cpu0.decode.UnblockCycles              3280327                       # Number of cycles decode is unblocking
>>>>>>> 6be7a0502e78ebf80a09b838e3e9c0d652379c93
system.cpu0.dtb.accesses                            0                       # DTB accesses
system.cpu0.dtb.hits                                0                       # DTB hits
system.cpu0.dtb.misses                              0                       # DTB misses
system.cpu0.dtb.read_accesses                       0                       # DTB read accesses
system.cpu0.dtb.read_hits                           0                       # DTB read hits
system.cpu0.dtb.read_misses                         0                       # DTB read misses
system.cpu0.dtb.write_accesses                      0                       # DTB write accesses
system.cpu0.dtb.write_hits                          0                       # DTB write hits
system.cpu0.dtb.write_misses                        0                       # DTB write misses
<<<<<<< HEAD
system.cpu0.fetch.Branches                  155496003                       # Number of branches that fetch encountered
system.cpu0.fetch.CacheLines                102377820                       # Number of cache lines fetched
system.cpu0.fetch.Cycles                    561613895                       # Number of cycles fetch has run and was not squashing or blocked
system.cpu0.fetch.IcacheSquashes              2914328                       # Number of outstanding Icache misses that were squashed
system.cpu0.fetch.IcacheWaitRetryStallCycles           93                       # Number of stall cycles due to full MSHR
system.cpu0.fetch.Insts                     649425801                       # Number of instructions fetch has processed
system.cpu0.fetch.MiscStallCycles                  23                       # Number of cycles fetch has spent waiting on interrupts, or bad addresses, or out of MSHRs
system.cpu0.fetch.PendingTrapStallCycles           96                       # Number of stall cycles due to pending traps
system.cpu0.fetch.SquashCycles               17022826                       # Number of cycles fetch has spent squashing
system.cpu0.fetch.branchRate                 0.158796                       # Number of branch fetches per cycle
system.cpu0.fetch.icacheStallCycles         340192277                       # Number of cycles fetch is stalled on an Icache miss
system.cpu0.fetch.predictedBranches          89086320                       # Number of branches that fetch has predicted taken
system.cpu0.fetch.rate                       0.663208                       # Number of inst fetches per cycle
system.cpu0.fetch.rateDist::samples         910317797                       # Number of instructions fetched each cycle (Total)
system.cpu0.fetch.rateDist::mean             0.713967                       # Number of instructions fetched each cycle (Total)
system.cpu0.fetch.rateDist::stdev            0.932808                       # Number of instructions fetched each cycle (Total)
system.cpu0.fetch.rateDist::underflows              0      0.00%      0.00% # Number of instructions fetched each cycle (Total)
system.cpu0.fetch.rateDist::0               455221369     50.01%     50.01% # Number of instructions fetched each cycle (Total)
system.cpu0.fetch.rateDist::1               336788584     37.00%     87.00% # Number of instructions fetched each cycle (Total)
system.cpu0.fetch.rateDist::2                61238020      6.73%     93.73% # Number of instructions fetched each cycle (Total)
system.cpu0.fetch.rateDist::3                43640733      4.79%     98.52% # Number of instructions fetched each cycle (Total)
system.cpu0.fetch.rateDist::4                10558376      1.16%     99.68% # Number of instructions fetched each cycle (Total)
system.cpu0.fetch.rateDist::5                 1750128      0.19%     99.88% # Number of instructions fetched each cycle (Total)
system.cpu0.fetch.rateDist::6                   99174      0.01%     99.89% # Number of instructions fetched each cycle (Total)
system.cpu0.fetch.rateDist::7                     454      0.00%     99.89% # Number of instructions fetched each cycle (Total)
system.cpu0.fetch.rateDist::8                 1020959      0.11%    100.00% # Number of instructions fetched each cycle (Total)
system.cpu0.fetch.rateDist::overflows               0      0.00%    100.00% # Number of instructions fetched each cycle (Total)
system.cpu0.fetch.rateDist::min_value               0                       # Number of instructions fetched each cycle (Total)
system.cpu0.fetch.rateDist::max_value               8                       # Number of instructions fetched each cycle (Total)
system.cpu0.fetch.rateDist::total           910317797                       # Number of instructions fetched each cycle (Total)
system.cpu0.fp_regfile_reads                       44                       # number of floating regfile reads
system.cpu0.fp_regfile_writes                      23                       # number of floating regfile writes
system.cpu0.idleCycles                       68900437                       # Total number of cycles that the CPU has spent unscheduled due to idling
system.cpu0.iew.branchMispredicts             5713792                       # Number of branch mispredicts detected at execute
system.cpu0.iew.exec_branches               146478973                       # Number of branches executed
system.cpu0.iew.exec_nop                            0                       # number of nop insts executed
system.cpu0.iew.exec_rate                    0.625218                       # Inst execution rate
system.cpu0.iew.exec_refs                   275673799                       # number of memory reference insts executed
system.cpu0.iew.exec_stores                  77611055                       # Number of stores executed
system.cpu0.iew.exec_swp                            0                       # number of swp insts executed
system.cpu0.iew.iewBlockCycles               88310335                       # Number of cycles IEW is blocking
system.cpu0.iew.iewDispLoadInsts            197658784                       # Number of dispatched load instructions
system.cpu0.iew.iewDispNonSpecInsts            512635                       # Number of dispatched non-speculative instructions
system.cpu0.iew.iewDispSquashedInsts          2758197                       # Number of squashed instructions skipped by dispatch
system.cpu0.iew.iewDispStoreInsts            78678813                       # Number of dispatched store instructions
system.cpu0.iew.iewDispatchedInsts          617440257                       # Number of instructions dispatched to IQ
system.cpu0.iew.iewExecLoadInsts            198062744                       # Number of load instructions executed
system.cpu0.iew.iewExecSquashedInsts          3915727                       # Number of squashed instructions skipped in execute
system.cpu0.iew.iewExecutedInsts            612225295                       # Number of executed instructions
system.cpu0.iew.iewIQFullEvents                483021                       # Number of times the IQ has become full, causing a stall
system.cpu0.iew.iewIdleCycles                       0                       # Number of cycles IEW is idle
system.cpu0.iew.iewLSQFullEvents              3286805                       # Number of times the LSQ has become full, causing a stall
system.cpu0.iew.iewSquashCycles               5606498                       # Number of cycles IEW is squashing
system.cpu0.iew.iewUnblockCycles              4349040                       # Number of cycles IEW is unblocking
system.cpu0.iew.lsq.thread0.blockedLoads            0                       # Number of blocked loads due to partial load-store forwarding
system.cpu0.iew.lsq.thread0.cacheBlocked        95398                       # Number of times an access to memory failed due to the cache being blocked
system.cpu0.iew.lsq.thread0.forwLoads         9690050                       # Number of loads that had data forwarded from stores
system.cpu0.iew.lsq.thread0.ignoredResponses        34132                       # Number of memory responses ignored because the instruction is squashed
system.cpu0.iew.lsq.thread0.invAddrLoads            0                       # Number of loads ignored due to an invalid address
system.cpu0.iew.lsq.thread0.invAddrSwpfs            0                       # Number of software prefetches ignored due to an invalid address
system.cpu0.iew.lsq.thread0.memOrderViolation         5750                       # Number of memory ordering violations
system.cpu0.iew.lsq.thread0.rescheduledLoads      3517716                       # Number of loads that were rescheduled
system.cpu0.iew.lsq.thread0.squashedLoads     22894441                       # Number of loads squashed
system.cpu0.iew.lsq.thread0.squashedStores      8352555                       # Number of stores squashed
system.cpu0.iew.memOrderViolationEvents          5750                       # Number of memory order violations
system.cpu0.iew.predictedNotTakenIncorrect       831157                       # Number of branches that were predicted not taken incorrectly
system.cpu0.iew.predictedTakenIncorrect       4882635                       # Number of branches that were predicted taken incorrectly
system.cpu0.iew.wb_consumers                272553420                       # num instructions consuming a value
system.cpu0.iew.wb_count                    605514132                       # cumulative count of insts written-back
system.cpu0.iew.wb_fanout                    0.836254                       # average fanout of values written-back
system.cpu0.iew.wb_producers                227923863                       # num instructions producing a value
system.cpu0.iew.wb_rate                      0.618365                       # insts written-back per cycle
system.cpu0.iew.wb_sent                     605635316                       # cumulative count of insts sent to commit
system.cpu0.int_regfile_reads               744995806                       # number of integer regfile reads
system.cpu0.int_regfile_writes              387188575                       # number of integer regfile writes
system.cpu0.ipc                              0.573749                       # IPC: Instructions Per Cycle
system.cpu0.ipc_total                        0.573749                       # IPC: Total IPC of All Threads
system.cpu0.iq.FU_type_0::No_OpClass          1020980      0.17%      0.17% # Type of FU issued
system.cpu0.iq.FU_type_0::IntAlu            332525124     53.97%     54.13% # Type of FU issued
system.cpu0.iq.FU_type_0::IntMult             4213314      0.68%     54.82% # Type of FU issued
system.cpu0.iq.FU_type_0::IntDiv              1018066      0.17%     54.98% # Type of FU issued
system.cpu0.iq.FU_type_0::FloatAdd                  0      0.00%     54.98% # Type of FU issued
system.cpu0.iq.FU_type_0::FloatCmp                  4      0.00%     54.98% # Type of FU issued
system.cpu0.iq.FU_type_0::FloatCvt                 12      0.00%     54.98% # Type of FU issued
system.cpu0.iq.FU_type_0::FloatMult                 0      0.00%     54.98% # Type of FU issued
system.cpu0.iq.FU_type_0::FloatMultAcc              0      0.00%     54.98% # Type of FU issued
system.cpu0.iq.FU_type_0::FloatDiv                  2      0.00%     54.98% # Type of FU issued
system.cpu0.iq.FU_type_0::FloatMisc                 4      0.00%     54.98% # Type of FU issued
system.cpu0.iq.FU_type_0::FloatSqrt                 0      0.00%     54.98% # Type of FU issued
system.cpu0.iq.FU_type_0::SimdAdd                   0      0.00%     54.98% # Type of FU issued
system.cpu0.iq.FU_type_0::SimdAddAcc                0      0.00%     54.98% # Type of FU issued
system.cpu0.iq.FU_type_0::SimdAlu                   0      0.00%     54.98% # Type of FU issued
system.cpu0.iq.FU_type_0::SimdCmp                   0      0.00%     54.98% # Type of FU issued
system.cpu0.iq.FU_type_0::SimdCvt                   0      0.00%     54.98% # Type of FU issued
system.cpu0.iq.FU_type_0::SimdMisc                  0      0.00%     54.98% # Type of FU issued
system.cpu0.iq.FU_type_0::SimdMult                  0      0.00%     54.98% # Type of FU issued
system.cpu0.iq.FU_type_0::SimdMultAcc               0      0.00%     54.98% # Type of FU issued
system.cpu0.iq.FU_type_0::SimdShift                 0      0.00%     54.98% # Type of FU issued
system.cpu0.iq.FU_type_0::SimdShiftAcc              0      0.00%     54.98% # Type of FU issued
system.cpu0.iq.FU_type_0::SimdDiv                   0      0.00%     54.98% # Type of FU issued
system.cpu0.iq.FU_type_0::SimdSqrt                  0      0.00%     54.98% # Type of FU issued
system.cpu0.iq.FU_type_0::SimdFloatAdd              0      0.00%     54.98% # Type of FU issued
system.cpu0.iq.FU_type_0::SimdFloatAlu              0      0.00%     54.98% # Type of FU issued
system.cpu0.iq.FU_type_0::SimdFloatCmp              0      0.00%     54.98% # Type of FU issued
system.cpu0.iq.FU_type_0::SimdFloatCvt              0      0.00%     54.98% # Type of FU issued
system.cpu0.iq.FU_type_0::SimdFloatDiv              0      0.00%     54.98% # Type of FU issued
system.cpu0.iq.FU_type_0::SimdFloatMisc             0      0.00%     54.98% # Type of FU issued
system.cpu0.iq.FU_type_0::SimdFloatMult             0      0.00%     54.98% # Type of FU issued
system.cpu0.iq.FU_type_0::SimdFloatMultAcc            0      0.00%     54.98% # Type of FU issued
system.cpu0.iq.FU_type_0::SimdFloatSqrt             0      0.00%     54.98% # Type of FU issued
system.cpu0.iq.FU_type_0::SimdReduceAdd             0      0.00%     54.98% # Type of FU issued
system.cpu0.iq.FU_type_0::SimdReduceAlu             0      0.00%     54.98% # Type of FU issued
system.cpu0.iq.FU_type_0::SimdReduceCmp             0      0.00%     54.98% # Type of FU issued
system.cpu0.iq.FU_type_0::SimdFloatReduceAdd            0      0.00%     54.98% # Type of FU issued
system.cpu0.iq.FU_type_0::SimdFloatReduceCmp            0      0.00%     54.98% # Type of FU issued
system.cpu0.iq.FU_type_0::SimdAes                   0      0.00%     54.98% # Type of FU issued
system.cpu0.iq.FU_type_0::SimdAesMix                0      0.00%     54.98% # Type of FU issued
system.cpu0.iq.FU_type_0::SimdSha1Hash              0      0.00%     54.98% # Type of FU issued
system.cpu0.iq.FU_type_0::SimdSha1Hash2             0      0.00%     54.98% # Type of FU issued
system.cpu0.iq.FU_type_0::SimdSha256Hash            0      0.00%     54.98% # Type of FU issued
system.cpu0.iq.FU_type_0::SimdSha256Hash2            0      0.00%     54.98% # Type of FU issued
system.cpu0.iq.FU_type_0::SimdShaSigma2             0      0.00%     54.98% # Type of FU issued
system.cpu0.iq.FU_type_0::SimdShaSigma3             0      0.00%     54.98% # Type of FU issued
system.cpu0.iq.FU_type_0::SimdPredAlu               0      0.00%     54.98% # Type of FU issued
system.cpu0.iq.FU_type_0::MemRead           199855509     32.44%     87.42% # Type of FU issued
system.cpu0.iq.FU_type_0::MemWrite           77507978     12.58%    100.00% # Type of FU issued
=======
system.cpu0.fetch.Branches                  156833325                       # Number of branches that fetch encountered
system.cpu0.fetch.CacheLines                104446628                       # Number of cache lines fetched
system.cpu0.fetch.Cycles                    632820848                       # Number of cycles fetch has run and was not squashing or blocked
system.cpu0.fetch.IcacheSquashes              3020821                       # Number of outstanding Icache misses that were squashed
system.cpu0.fetch.IcacheWaitRetryStallCycles          106                       # Number of stall cycles due to full MSHR
system.cpu0.fetch.Insts                     650133187                       # Number of instructions fetch has processed
system.cpu0.fetch.MiscStallCycles                  33                       # Number of cycles fetch has spent waiting on interrupts, or bad addresses, or out of MSHRs
system.cpu0.fetch.PendingTrapStallCycles          153                       # Number of stall cycles due to pending traps
system.cpu0.fetch.SquashCycles               18646392                       # Number of cycles fetch has spent squashing
system.cpu0.fetch.branchRate                 0.148282                       # Number of branch fetches per cycle
system.cpu0.fetch.icacheStallCycles         344872535                       # Number of cycles fetch is stalled on an Icache miss
system.cpu0.fetch.predictedBranches          90368641                       # Number of branches that fetch has predicted taken
system.cpu0.fetch.rate                       0.614685                       # Number of inst fetches per cycle
system.cpu0.fetch.rateDist::samples         987016871                       # Number of instructions fetched each cycle (Total)
system.cpu0.fetch.rateDist::mean             0.659718                       # Number of instructions fetched each cycle (Total)
system.cpu0.fetch.rateDist::stdev            0.922013                       # Number of instructions fetched each cycle (Total)
system.cpu0.fetch.rateDist::underflows              0      0.00%      0.00% # Number of instructions fetched each cycle (Total)
system.cpu0.fetch.rateDist::0               533728136     54.07%     54.07% # Number of instructions fetched each cycle (Total)
system.cpu0.fetch.rateDist::1               333396159     33.78%     87.85% # Number of instructions fetched each cycle (Total)
system.cpu0.fetch.rateDist::2                61990699      6.28%     94.13% # Number of instructions fetched each cycle (Total)
system.cpu0.fetch.rateDist::3                44287222      4.49%     98.62% # Number of instructions fetched each cycle (Total)
system.cpu0.fetch.rateDist::4                10483188      1.06%     99.68% # Number of instructions fetched each cycle (Total)
system.cpu0.fetch.rateDist::5                 1849898      0.19%     99.87% # Number of instructions fetched each cycle (Total)
system.cpu0.fetch.rateDist::6                  260328      0.03%     99.90% # Number of instructions fetched each cycle (Total)
system.cpu0.fetch.rateDist::7                     408      0.00%     99.90% # Number of instructions fetched each cycle (Total)
system.cpu0.fetch.rateDist::8                 1020833      0.10%    100.00% # Number of instructions fetched each cycle (Total)
system.cpu0.fetch.rateDist::overflows               0      0.00%    100.00% # Number of instructions fetched each cycle (Total)
system.cpu0.fetch.rateDist::min_value               0                       # Number of instructions fetched each cycle (Total)
system.cpu0.fetch.rateDist::max_value               8                       # Number of instructions fetched each cycle (Total)
system.cpu0.fetch.rateDist::total           987016871                       # Number of instructions fetched each cycle (Total)
system.cpu0.fp_regfile_reads                       44                       # number of floating regfile reads
system.cpu0.fp_regfile_writes                      23                       # number of floating regfile writes
system.cpu0.idleCycles                       70652145                       # Total number of cycles that the CPU has spent unscheduled due to idling
system.cpu0.iew.branchMispredicts             6208894                       # Number of branch mispredicts detected at execute
system.cpu0.iew.exec_branches               147780968                       # Number of branches executed
system.cpu0.iew.exec_nop                            0                       # number of nop insts executed
system.cpu0.iew.exec_rate                    0.577991                       # Inst execution rate
system.cpu0.iew.exec_refs                   269473286                       # number of memory reference insts executed
system.cpu0.iew.exec_stores                  75107585                       # Number of stores executed
system.cpu0.iew.exec_swp                            0                       # number of swp insts executed
system.cpu0.iew.iewBlockCycles              153800535                       # Number of cycles IEW is blocking
system.cpu0.iew.iewDispLoadInsts            194364414                       # Number of dispatched load instructions
system.cpu0.iew.iewDispNonSpecInsts           1021074                       # Number of dispatched non-speculative instructions
system.cpu0.iew.iewDispSquashedInsts          3698335                       # Number of squashed instructions skipped by dispatch
system.cpu0.iew.iewDispStoreInsts            76051100                       # Number of dispatched store instructions
system.cpu0.iew.iewDispatchedInsts          618377981                       # Number of instructions dispatched to IQ
system.cpu0.iew.iewExecLoadInsts            194365701                       # Number of load instructions executed
system.cpu0.iew.iewExecSquashedInsts          4740010                       # Number of squashed instructions skipped in execute
system.cpu0.iew.iewExecutedInsts            611323194                       # Number of executed instructions
system.cpu0.iew.iewIQFullEvents               1013773                       # Number of times the IQ has become full, causing a stall
system.cpu0.iew.iewIdleCycles                       0                       # Number of cycles IEW is idle
system.cpu0.iew.iewLSQFullEvents              4236513                       # Number of times the LSQ has become full, causing a stall
system.cpu0.iew.iewSquashCycles               6086919                       # Number of cycles IEW is squashing
system.cpu0.iew.iewUnblockCycles              6355783                       # Number of cycles IEW is unblocking
system.cpu0.iew.lsq.thread0.blockedLoads            0                       # Number of blocked loads due to partial load-store forwarding
system.cpu0.iew.lsq.thread0.cacheBlocked       111293                       # Number of times an access to memory failed due to the cache being blocked
system.cpu0.iew.lsq.thread0.forwLoads         9579317                       # Number of loads that had data forwarded from stores
system.cpu0.iew.lsq.thread0.ignoredResponses        57319                       # Number of memory responses ignored because the instruction is squashed
system.cpu0.iew.lsq.thread0.invAddrLoads            0                       # Number of loads ignored due to an invalid address
system.cpu0.iew.lsq.thread0.invAddrSwpfs            0                       # Number of software prefetches ignored due to an invalid address
system.cpu0.iew.lsq.thread0.memOrderViolation         5303                       # Number of memory ordering violations
system.cpu0.iew.lsq.thread0.rescheduledLoads      2442094                       # Number of loads that were rescheduled
system.cpu0.iew.lsq.thread0.squashedLoads     14413626                       # Number of loads squashed
system.cpu0.iew.lsq.thread0.squashedStores      4113683                       # Number of stores squashed
system.cpu0.iew.memOrderViolationEvents          5303                       # Number of memory order violations
system.cpu0.iew.predictedNotTakenIncorrect       884480                       # Number of branches that were predicted not taken incorrectly
system.cpu0.iew.predictedTakenIncorrect       5324414                       # Number of branches that were predicted taken incorrectly
system.cpu0.iew.wb_consumers                277016384                       # num instructions consuming a value
system.cpu0.iew.wb_count                    605090815                       # cumulative count of insts written-back
system.cpu0.iew.wb_fanout                    0.836855                       # average fanout of values written-back
system.cpu0.iew.wb_producers                231822447                       # num instructions producing a value
system.cpu0.iew.wb_rate                      0.572098                       # insts written-back per cycle
system.cpu0.iew.wb_sent                     605175260                       # cumulative count of insts sent to commit
system.cpu0.int_regfile_reads               746134020                       # number of integer regfile reads
system.cpu0.int_regfile_writes              386812465                       # number of integer regfile writes
system.cpu0.ipc                              0.548659                       # IPC: Instructions Per Cycle
system.cpu0.ipc_total                        0.548659                       # IPC: Total IPC of All Threads
system.cpu0.iq.FU_type_0::No_OpClass          2038453      0.33%      0.33% # Type of FU issued
system.cpu0.iq.FU_type_0::IntAlu            337411533     54.77%     55.10% # Type of FU issued
system.cpu0.iq.FU_type_0::IntMult             4213139      0.68%     55.78% # Type of FU issued
system.cpu0.iq.FU_type_0::IntDiv              1018049      0.17%     55.95% # Type of FU issued
system.cpu0.iq.FU_type_0::FloatAdd                  0      0.00%     55.95% # Type of FU issued
system.cpu0.iq.FU_type_0::FloatCmp                  4      0.00%     55.95% # Type of FU issued
system.cpu0.iq.FU_type_0::FloatCvt                 12      0.00%     55.95% # Type of FU issued
system.cpu0.iq.FU_type_0::FloatMult                 0      0.00%     55.95% # Type of FU issued
system.cpu0.iq.FU_type_0::FloatMultAcc              0      0.00%     55.95% # Type of FU issued
system.cpu0.iq.FU_type_0::FloatDiv                  2      0.00%     55.95% # Type of FU issued
system.cpu0.iq.FU_type_0::FloatMisc                 4      0.00%     55.95% # Type of FU issued
system.cpu0.iq.FU_type_0::FloatSqrt                 0      0.00%     55.95% # Type of FU issued
system.cpu0.iq.FU_type_0::SimdAdd                   0      0.00%     55.95% # Type of FU issued
system.cpu0.iq.FU_type_0::SimdAddAcc                0      0.00%     55.95% # Type of FU issued
system.cpu0.iq.FU_type_0::SimdAlu                   0      0.00%     55.95% # Type of FU issued
system.cpu0.iq.FU_type_0::SimdCmp                   0      0.00%     55.95% # Type of FU issued
system.cpu0.iq.FU_type_0::SimdCvt                   0      0.00%     55.95% # Type of FU issued
system.cpu0.iq.FU_type_0::SimdMisc                  0      0.00%     55.95% # Type of FU issued
system.cpu0.iq.FU_type_0::SimdMult                  0      0.00%     55.95% # Type of FU issued
system.cpu0.iq.FU_type_0::SimdMultAcc               0      0.00%     55.95% # Type of FU issued
system.cpu0.iq.FU_type_0::SimdShift                 0      0.00%     55.95% # Type of FU issued
system.cpu0.iq.FU_type_0::SimdShiftAcc              0      0.00%     55.95% # Type of FU issued
system.cpu0.iq.FU_type_0::SimdDiv                   0      0.00%     55.95% # Type of FU issued
system.cpu0.iq.FU_type_0::SimdSqrt                  0      0.00%     55.95% # Type of FU issued
system.cpu0.iq.FU_type_0::SimdFloatAdd              0      0.00%     55.95% # Type of FU issued
system.cpu0.iq.FU_type_0::SimdFloatAlu              0      0.00%     55.95% # Type of FU issued
system.cpu0.iq.FU_type_0::SimdFloatCmp              0      0.00%     55.95% # Type of FU issued
system.cpu0.iq.FU_type_0::SimdFloatCvt              0      0.00%     55.95% # Type of FU issued
system.cpu0.iq.FU_type_0::SimdFloatDiv              0      0.00%     55.95% # Type of FU issued
system.cpu0.iq.FU_type_0::SimdFloatMisc             0      0.00%     55.95% # Type of FU issued
system.cpu0.iq.FU_type_0::SimdFloatMult             0      0.00%     55.95% # Type of FU issued
system.cpu0.iq.FU_type_0::SimdFloatMultAcc            0      0.00%     55.95% # Type of FU issued
system.cpu0.iq.FU_type_0::SimdFloatSqrt             0      0.00%     55.95% # Type of FU issued
system.cpu0.iq.FU_type_0::SimdReduceAdd             0      0.00%     55.95% # Type of FU issued
system.cpu0.iq.FU_type_0::SimdReduceAlu             0      0.00%     55.95% # Type of FU issued
system.cpu0.iq.FU_type_0::SimdReduceCmp             0      0.00%     55.95% # Type of FU issued
system.cpu0.iq.FU_type_0::SimdFloatReduceAdd            0      0.00%     55.95% # Type of FU issued
system.cpu0.iq.FU_type_0::SimdFloatReduceCmp            0      0.00%     55.95% # Type of FU issued
system.cpu0.iq.FU_type_0::SimdAes                   0      0.00%     55.95% # Type of FU issued
system.cpu0.iq.FU_type_0::SimdAesMix                0      0.00%     55.95% # Type of FU issued
system.cpu0.iq.FU_type_0::SimdSha1Hash              0      0.00%     55.95% # Type of FU issued
system.cpu0.iq.FU_type_0::SimdSha1Hash2             0      0.00%     55.95% # Type of FU issued
system.cpu0.iq.FU_type_0::SimdSha256Hash            0      0.00%     55.95% # Type of FU issued
system.cpu0.iq.FU_type_0::SimdSha256Hash2            0      0.00%     55.95% # Type of FU issued
system.cpu0.iq.FU_type_0::SimdShaSigma2             0      0.00%     55.95% # Type of FU issued
system.cpu0.iq.FU_type_0::SimdShaSigma3             0      0.00%     55.95% # Type of FU issued
system.cpu0.iq.FU_type_0::SimdPredAlu               0      0.00%     55.95% # Type of FU issued
system.cpu0.iq.FU_type_0::MemRead           196963268     31.97%     87.92% # Type of FU issued
system.cpu0.iq.FU_type_0::MemWrite           74418711     12.08%    100.00% # Type of FU issued
>>>>>>> 6be7a0502e78ebf80a09b838e3e9c0d652379c93
system.cpu0.iq.FU_type_0::FloatMemRead              9      0.00%    100.00% # Type of FU issued
system.cpu0.iq.FU_type_0::FloatMemWrite            20      0.00%    100.00% # Type of FU issued
system.cpu0.iq.FU_type_0::IprAccess                 0      0.00%    100.00% # Type of FU issued
system.cpu0.iq.FU_type_0::InstPrefetch              0      0.00%    100.00% # Type of FU issued
<<<<<<< HEAD
system.cpu0.iq.FU_type_0::total             616141022                       # Type of FU issued
=======
system.cpu0.iq.FU_type_0::total             616063204                       # Type of FU issued
>>>>>>> 6be7a0502e78ebf80a09b838e3e9c0d652379c93
system.cpu0.iq.fp_alu_accesses                     55                       # Number of floating point alu accesses
system.cpu0.iq.fp_inst_queue_reads                106                       # Number of floating instruction queue reads
system.cpu0.iq.fp_inst_queue_wakeup_accesses           51                       # Number of floating instruction queue wakeup accesses
system.cpu0.iq.fp_inst_queue_writes                52                       # Number of floating instruction queue writes
<<<<<<< HEAD
system.cpu0.iq.fu_busy_cnt                     839681                       # FU busy when requested
system.cpu0.iq.fu_busy_rate                  0.001363                       # FU busy rate (busy events/executed inst)
system.cpu0.iq.fu_full::No_OpClass                  0      0.00%      0.00% # attempts to use FU when none available
system.cpu0.iq.fu_full::IntAlu                 162159     19.31%     19.31% # attempts to use FU when none available
system.cpu0.iq.fu_full::IntMult                     5      0.00%     19.31% # attempts to use FU when none available
system.cpu0.iq.fu_full::IntDiv                      0      0.00%     19.31% # attempts to use FU when none available
system.cpu0.iq.fu_full::FloatAdd                    0      0.00%     19.31% # attempts to use FU when none available
system.cpu0.iq.fu_full::FloatCmp                    0      0.00%     19.31% # attempts to use FU when none available
system.cpu0.iq.fu_full::FloatCvt                    0      0.00%     19.31% # attempts to use FU when none available
system.cpu0.iq.fu_full::FloatMult                   0      0.00%     19.31% # attempts to use FU when none available
system.cpu0.iq.fu_full::FloatMultAcc                0      0.00%     19.31% # attempts to use FU when none available
system.cpu0.iq.fu_full::FloatDiv                    0      0.00%     19.31% # attempts to use FU when none available
system.cpu0.iq.fu_full::FloatMisc                   0      0.00%     19.31% # attempts to use FU when none available
system.cpu0.iq.fu_full::FloatSqrt                   0      0.00%     19.31% # attempts to use FU when none available
system.cpu0.iq.fu_full::SimdAdd                     0      0.00%     19.31% # attempts to use FU when none available
system.cpu0.iq.fu_full::SimdAddAcc                  0      0.00%     19.31% # attempts to use FU when none available
system.cpu0.iq.fu_full::SimdAlu                     0      0.00%     19.31% # attempts to use FU when none available
system.cpu0.iq.fu_full::SimdCmp                     0      0.00%     19.31% # attempts to use FU when none available
system.cpu0.iq.fu_full::SimdCvt                     0      0.00%     19.31% # attempts to use FU when none available
system.cpu0.iq.fu_full::SimdMisc                    0      0.00%     19.31% # attempts to use FU when none available
system.cpu0.iq.fu_full::SimdMult                    0      0.00%     19.31% # attempts to use FU when none available
system.cpu0.iq.fu_full::SimdMultAcc                 0      0.00%     19.31% # attempts to use FU when none available
system.cpu0.iq.fu_full::SimdShift                   0      0.00%     19.31% # attempts to use FU when none available
system.cpu0.iq.fu_full::SimdShiftAcc                0      0.00%     19.31% # attempts to use FU when none available
system.cpu0.iq.fu_full::SimdDiv                     0      0.00%     19.31% # attempts to use FU when none available
system.cpu0.iq.fu_full::SimdSqrt                    0      0.00%     19.31% # attempts to use FU when none available
system.cpu0.iq.fu_full::SimdFloatAdd                0      0.00%     19.31% # attempts to use FU when none available
system.cpu0.iq.fu_full::SimdFloatAlu                0      0.00%     19.31% # attempts to use FU when none available
system.cpu0.iq.fu_full::SimdFloatCmp                0      0.00%     19.31% # attempts to use FU when none available
system.cpu0.iq.fu_full::SimdFloatCvt                0      0.00%     19.31% # attempts to use FU when none available
system.cpu0.iq.fu_full::SimdFloatDiv                0      0.00%     19.31% # attempts to use FU when none available
system.cpu0.iq.fu_full::SimdFloatMisc               0      0.00%     19.31% # attempts to use FU when none available
system.cpu0.iq.fu_full::SimdFloatMult               0      0.00%     19.31% # attempts to use FU when none available
system.cpu0.iq.fu_full::SimdFloatMultAcc            0      0.00%     19.31% # attempts to use FU when none available
system.cpu0.iq.fu_full::SimdFloatSqrt               0      0.00%     19.31% # attempts to use FU when none available
system.cpu0.iq.fu_full::SimdReduceAdd               0      0.00%     19.31% # attempts to use FU when none available
system.cpu0.iq.fu_full::SimdReduceAlu               0      0.00%     19.31% # attempts to use FU when none available
system.cpu0.iq.fu_full::SimdReduceCmp               0      0.00%     19.31% # attempts to use FU when none available
system.cpu0.iq.fu_full::SimdFloatReduceAdd            0      0.00%     19.31% # attempts to use FU when none available
system.cpu0.iq.fu_full::SimdFloatReduceCmp            0      0.00%     19.31% # attempts to use FU when none available
system.cpu0.iq.fu_full::SimdAes                     0      0.00%     19.31% # attempts to use FU when none available
system.cpu0.iq.fu_full::SimdAesMix                  0      0.00%     19.31% # attempts to use FU when none available
system.cpu0.iq.fu_full::SimdSha1Hash                0      0.00%     19.31% # attempts to use FU when none available
system.cpu0.iq.fu_full::SimdSha1Hash2               0      0.00%     19.31% # attempts to use FU when none available
system.cpu0.iq.fu_full::SimdSha256Hash              0      0.00%     19.31% # attempts to use FU when none available
system.cpu0.iq.fu_full::SimdSha256Hash2             0      0.00%     19.31% # attempts to use FU when none available
system.cpu0.iq.fu_full::SimdShaSigma2               0      0.00%     19.31% # attempts to use FU when none available
system.cpu0.iq.fu_full::SimdShaSigma3               0      0.00%     19.31% # attempts to use FU when none available
system.cpu0.iq.fu_full::SimdPredAlu                 0      0.00%     19.31% # attempts to use FU when none available
system.cpu0.iq.fu_full::MemRead                563822     67.15%     86.46% # attempts to use FU when none available
system.cpu0.iq.fu_full::MemWrite               113691     13.54%    100.00% # attempts to use FU when none available
=======
system.cpu0.iq.fu_busy_cnt                    1438356                       # FU busy when requested
system.cpu0.iq.fu_busy_rate                  0.002335                       # FU busy rate (busy events/executed inst)
system.cpu0.iq.fu_full::No_OpClass                  0      0.00%      0.00% # attempts to use FU when none available
system.cpu0.iq.fu_full::IntAlu                 262588     18.26%     18.26% # attempts to use FU when none available
system.cpu0.iq.fu_full::IntMult                    15      0.00%     18.26% # attempts to use FU when none available
system.cpu0.iq.fu_full::IntDiv                      0      0.00%     18.26% # attempts to use FU when none available
system.cpu0.iq.fu_full::FloatAdd                    0      0.00%     18.26% # attempts to use FU when none available
system.cpu0.iq.fu_full::FloatCmp                    0      0.00%     18.26% # attempts to use FU when none available
system.cpu0.iq.fu_full::FloatCvt                    0      0.00%     18.26% # attempts to use FU when none available
system.cpu0.iq.fu_full::FloatMult                   0      0.00%     18.26% # attempts to use FU when none available
system.cpu0.iq.fu_full::FloatMultAcc                0      0.00%     18.26% # attempts to use FU when none available
system.cpu0.iq.fu_full::FloatDiv                    0      0.00%     18.26% # attempts to use FU when none available
system.cpu0.iq.fu_full::FloatMisc                   0      0.00%     18.26% # attempts to use FU when none available
system.cpu0.iq.fu_full::FloatSqrt                   0      0.00%     18.26% # attempts to use FU when none available
system.cpu0.iq.fu_full::SimdAdd                     0      0.00%     18.26% # attempts to use FU when none available
system.cpu0.iq.fu_full::SimdAddAcc                  0      0.00%     18.26% # attempts to use FU when none available
system.cpu0.iq.fu_full::SimdAlu                     0      0.00%     18.26% # attempts to use FU when none available
system.cpu0.iq.fu_full::SimdCmp                     0      0.00%     18.26% # attempts to use FU when none available
system.cpu0.iq.fu_full::SimdCvt                     0      0.00%     18.26% # attempts to use FU when none available
system.cpu0.iq.fu_full::SimdMisc                    0      0.00%     18.26% # attempts to use FU when none available
system.cpu0.iq.fu_full::SimdMult                    0      0.00%     18.26% # attempts to use FU when none available
system.cpu0.iq.fu_full::SimdMultAcc                 0      0.00%     18.26% # attempts to use FU when none available
system.cpu0.iq.fu_full::SimdShift                   0      0.00%     18.26% # attempts to use FU when none available
system.cpu0.iq.fu_full::SimdShiftAcc                0      0.00%     18.26% # attempts to use FU when none available
system.cpu0.iq.fu_full::SimdDiv                     0      0.00%     18.26% # attempts to use FU when none available
system.cpu0.iq.fu_full::SimdSqrt                    0      0.00%     18.26% # attempts to use FU when none available
system.cpu0.iq.fu_full::SimdFloatAdd                0      0.00%     18.26% # attempts to use FU when none available
system.cpu0.iq.fu_full::SimdFloatAlu                0      0.00%     18.26% # attempts to use FU when none available
system.cpu0.iq.fu_full::SimdFloatCmp                0      0.00%     18.26% # attempts to use FU when none available
system.cpu0.iq.fu_full::SimdFloatCvt                0      0.00%     18.26% # attempts to use FU when none available
system.cpu0.iq.fu_full::SimdFloatDiv                0      0.00%     18.26% # attempts to use FU when none available
system.cpu0.iq.fu_full::SimdFloatMisc               0      0.00%     18.26% # attempts to use FU when none available
system.cpu0.iq.fu_full::SimdFloatMult               0      0.00%     18.26% # attempts to use FU when none available
system.cpu0.iq.fu_full::SimdFloatMultAcc            0      0.00%     18.26% # attempts to use FU when none available
system.cpu0.iq.fu_full::SimdFloatSqrt               0      0.00%     18.26% # attempts to use FU when none available
system.cpu0.iq.fu_full::SimdReduceAdd               0      0.00%     18.26% # attempts to use FU when none available
system.cpu0.iq.fu_full::SimdReduceAlu               0      0.00%     18.26% # attempts to use FU when none available
system.cpu0.iq.fu_full::SimdReduceCmp               0      0.00%     18.26% # attempts to use FU when none available
system.cpu0.iq.fu_full::SimdFloatReduceAdd            0      0.00%     18.26% # attempts to use FU when none available
system.cpu0.iq.fu_full::SimdFloatReduceCmp            0      0.00%     18.26% # attempts to use FU when none available
system.cpu0.iq.fu_full::SimdAes                     0      0.00%     18.26% # attempts to use FU when none available
system.cpu0.iq.fu_full::SimdAesMix                  0      0.00%     18.26% # attempts to use FU when none available
system.cpu0.iq.fu_full::SimdSha1Hash                0      0.00%     18.26% # attempts to use FU when none available
system.cpu0.iq.fu_full::SimdSha1Hash2               0      0.00%     18.26% # attempts to use FU when none available
system.cpu0.iq.fu_full::SimdSha256Hash              0      0.00%     18.26% # attempts to use FU when none available
system.cpu0.iq.fu_full::SimdSha256Hash2             0      0.00%     18.26% # attempts to use FU when none available
system.cpu0.iq.fu_full::SimdShaSigma2               0      0.00%     18.26% # attempts to use FU when none available
system.cpu0.iq.fu_full::SimdShaSigma3               0      0.00%     18.26% # attempts to use FU when none available
system.cpu0.iq.fu_full::SimdPredAlu                 0      0.00%     18.26% # attempts to use FU when none available
system.cpu0.iq.fu_full::MemRead                998728     69.44%     87.69% # attempts to use FU when none available
system.cpu0.iq.fu_full::MemWrite               177021     12.31%    100.00% # attempts to use FU when none available
>>>>>>> 6be7a0502e78ebf80a09b838e3e9c0d652379c93
system.cpu0.iq.fu_full::FloatMemRead                0      0.00%    100.00% # attempts to use FU when none available
system.cpu0.iq.fu_full::FloatMemWrite               4      0.00%    100.00% # attempts to use FU when none available
system.cpu0.iq.fu_full::IprAccess                   0      0.00%    100.00% # attempts to use FU when none available
system.cpu0.iq.fu_full::InstPrefetch                0      0.00%    100.00% # attempts to use FU when none available
<<<<<<< HEAD
system.cpu0.iq.int_alu_accesses             615959668                       # Number of integer alu accesses
system.cpu0.iq.int_inst_queue_reads        2143508501                       # Number of integer instruction queue reads
system.cpu0.iq.int_inst_queue_wakeup_accesses    605514081                       # Number of integer instruction queue wakeup accesses
system.cpu0.iq.int_inst_queue_writes        672549436                       # Number of integer instruction queue writes
system.cpu0.iq.iqInstsAdded                 615907478                       # Number of instructions added to the IQ (excludes non-spec)
system.cpu0.iq.iqInstsIssued                616141022                       # Number of instructions issued
system.cpu0.iq.iqNonSpecInstsAdded            1532779                       # Number of non-speculative instructions added to the IQ
system.cpu0.iq.iqSquashedInstsExamined       55104260                       # Number of squashed instructions iterated over during squash; mainly for profiling
system.cpu0.iq.iqSquashedInstsIssued            69085                       # Number of squashed instructions issued
system.cpu0.iq.iqSquashedNonSpecRemoved           402                       # Number of squashed non-spec instructions that were removed
system.cpu0.iq.iqSquashedOperandsExamined     12244480                       # Number of squashed operands that are examined and possibly removed from graph
system.cpu0.iq.issued_per_cycle::samples    910317797                       # Number of insts issued each cycle
system.cpu0.iq.issued_per_cycle::mean        0.676842                       # Number of insts issued each cycle
system.cpu0.iq.issued_per_cycle::stdev       0.871729                       # Number of insts issued each cycle
system.cpu0.iq.issued_per_cycle::underflows            0      0.00%      0.00% # Number of insts issued each cycle
system.cpu0.iq.issued_per_cycle::0          482516397     53.01%     53.01% # Number of insts issued each cycle
system.cpu0.iq.issued_per_cycle::1          286088069     31.43%     84.43% # Number of insts issued each cycle
system.cpu0.iq.issued_per_cycle::2          103640424     11.39%     95.82% # Number of insts issued each cycle
system.cpu0.iq.issued_per_cycle::3           31274145      3.44%     99.25% # Number of insts issued each cycle
system.cpu0.iq.issued_per_cycle::4            5785899      0.64%     99.89% # Number of insts issued each cycle
system.cpu0.iq.issued_per_cycle::5             503502      0.06%     99.94% # Number of insts issued each cycle
system.cpu0.iq.issued_per_cycle::6             353661      0.04%     99.98% # Number of insts issued each cycle
system.cpu0.iq.issued_per_cycle::7              79002      0.01%     99.99% # Number of insts issued each cycle
system.cpu0.iq.issued_per_cycle::8              76698      0.01%    100.00% # Number of insts issued each cycle
system.cpu0.iq.issued_per_cycle::overflows            0      0.00%    100.00% # Number of insts issued each cycle
system.cpu0.iq.issued_per_cycle::min_value            0                       # Number of insts issued each cycle
system.cpu0.iq.issued_per_cycle::max_value            8                       # Number of insts issued each cycle
system.cpu0.iq.issued_per_cycle::total      910317797                       # Number of insts issued each cycle
system.cpu0.iq.rate                          0.629217                       # Inst issue rate
=======
system.cpu0.iq.int_alu_accesses             615463052                       # Number of integer alu accesses
system.cpu0.iq.int_inst_queue_reads        2220685500                       # Number of integer instruction queue reads
system.cpu0.iq.int_inst_queue_wakeup_accesses    605090764                       # Number of integer instruction queue wakeup accesses
system.cpu0.iq.int_inst_queue_writes        655441174                       # Number of integer instruction queue writes
system.cpu0.iq.iqInstsAdded                 615319185                       # Number of instructions added to the IQ (excludes non-spec)
system.cpu0.iq.iqInstsIssued                616063204                       # Number of instructions issued
system.cpu0.iq.iqNonSpecInstsAdded            3058796                       # Number of non-speculative instructions added to the IQ
system.cpu0.iq.iqSquashedInstsExamined       37058842                       # Number of squashed instructions iterated over during squash; mainly for profiling
system.cpu0.iq.iqSquashedInstsIssued           103971                       # Number of squashed instructions issued
system.cpu0.iq.iqSquashedNonSpecRemoved           326                       # Number of squashed non-spec instructions that were removed
system.cpu0.iq.iqSquashedOperandsExamined     13362618                       # Number of squashed operands that are examined and possibly removed from graph
system.cpu0.iq.issued_per_cycle::samples    987016871                       # Number of insts issued each cycle
system.cpu0.iq.issued_per_cycle::mean        0.624167                       # Number of insts issued each cycle
system.cpu0.iq.issued_per_cycle::stdev       0.859344                       # Number of insts issued each cycle
system.cpu0.iq.issued_per_cycle::underflows            0      0.00%      0.00% # Number of insts issued each cycle
system.cpu0.iq.issued_per_cycle::0          559255425     56.66%     56.66% # Number of insts issued each cycle
system.cpu0.iq.issued_per_cycle::1          287314518     29.11%     85.77% # Number of insts issued each cycle
system.cpu0.iq.issued_per_cycle::2          101393046     10.27%     96.04% # Number of insts issued each cycle
system.cpu0.iq.issued_per_cycle::3           32548721      3.30%     99.34% # Number of insts issued each cycle
system.cpu0.iq.issued_per_cycle::4            5212566      0.53%     99.87% # Number of insts issued each cycle
system.cpu0.iq.issued_per_cycle::5             601023      0.06%     99.93% # Number of insts issued each cycle
system.cpu0.iq.issued_per_cycle::6             485752      0.05%     99.98% # Number of insts issued each cycle
system.cpu0.iq.issued_per_cycle::7             100020      0.01%     99.99% # Number of insts issued each cycle
system.cpu0.iq.issued_per_cycle::8             105800      0.01%    100.00% # Number of insts issued each cycle
system.cpu0.iq.issued_per_cycle::overflows            0      0.00%    100.00% # Number of insts issued each cycle
system.cpu0.iq.issued_per_cycle::min_value            0                       # Number of insts issued each cycle
system.cpu0.iq.issued_per_cycle::max_value            8                       # Number of insts issued each cycle
system.cpu0.iq.issued_per_cycle::total      987016871                       # Number of insts issued each cycle
system.cpu0.iq.rate                          0.582473                       # Inst issue rate
>>>>>>> 6be7a0502e78ebf80a09b838e3e9c0d652379c93
system.cpu0.iq.vec_alu_accesses                     0                       # Number of vector alu accesses
system.cpu0.iq.vec_inst_queue_reads                 0                       # Number of vector instruction queue reads
system.cpu0.iq.vec_inst_queue_wakeup_accesses            0                       # Number of vector instruction queue wakeup accesses
system.cpu0.iq.vec_inst_queue_writes                0                       # Number of vector instruction queue writes
system.cpu0.itb.accesses                            0                       # DTB accesses
system.cpu0.itb.hits                                0                       # DTB hits
system.cpu0.itb.misses                              0                       # DTB misses
system.cpu0.itb.read_accesses                       0                       # DTB read accesses
system.cpu0.itb.read_hits                           0                       # DTB read hits
system.cpu0.itb.read_misses                         0                       # DTB read misses
system.cpu0.itb.write_accesses                      0                       # DTB write accesses
system.cpu0.itb.write_hits                          0                       # DTB write hits
system.cpu0.itb.write_misses                        0                       # DTB write misses
<<<<<<< HEAD
system.cpu0.memDep0.conflictingLoads          7532801                       # Number of conflicting loads.
system.cpu0.memDep0.conflictingStores         1458724                       # Number of conflicting stores.
system.cpu0.memDep0.insertedLoads           197658784                       # Number of loads inserted to the mem dependence unit.
system.cpu0.memDep0.insertedStores           78678813                       # Number of stores inserted to the mem dependence unit.
system.cpu0.misc_regfile_reads                   1033                       # number of misc regfile reads
system.cpu0.misc_regfile_writes                    22                       # number of misc regfile writes
[...]
system.cpu1.dcache.WriteReq_mshr_miss_rate::total     0.048620                       # mshr miss rate for WriteReq accesses
system.cpu1.dcache.WriteReq_avg_mshr_miss_latency::.cpu1.data 70019.449353                       # average WriteReq mshr miss latency
system.cpu1.dcache.WriteReq_avg_mshr_miss_latency::total 70019.449353                       # average WriteReq mshr miss latency
system.cpu1.dcache.LoadLockedReq_hits::.cpu1.data        47396                       # number of LoadLockedReq hits
system.cpu1.dcache.LoadLockedReq_hits::total        47396                       # number of LoadLockedReq hits
system.cpu1.dcache.LoadLockedReq_misses::.cpu1.data          877                       # number of LoadLockedReq misses
system.cpu1.dcache.LoadLockedReq_misses::total          877                       # number of LoadLockedReq misses
system.cpu1.dcache.LoadLockedReq_miss_latency::.cpu1.data     38385500                       # number of LoadLockedReq miss cycles
system.cpu1.dcache.LoadLockedReq_miss_latency::total     38385500                       # number of LoadLockedReq miss cycles
system.cpu1.dcache.LoadLockedReq_accesses::.cpu1.data        48273                       # number of LoadLockedReq accesses(hits+misses)
system.cpu1.dcache.LoadLockedReq_accesses::total        48273                       # number of LoadLockedReq accesses(hits+misses)
system.cpu1.dcache.LoadLockedReq_miss_rate::.cpu1.data     0.018168                       # miss rate for LoadLockedReq accesses
system.cpu1.dcache.LoadLockedReq_miss_rate::total     0.018168                       # miss rate for LoadLockedReq accesses
system.cpu1.dcache.LoadLockedReq_avg_miss_latency::.cpu1.data 43769.099202                       # average LoadLockedReq miss latency
system.cpu1.dcache.LoadLockedReq_avg_miss_latency::total 43769.099202                       # average LoadLockedReq miss latency
system.cpu1.dcache.LoadLockedReq_mshr_hits::.cpu1.data          257                       # number of LoadLockedReq MSHR hits
system.cpu1.dcache.LoadLockedReq_mshr_hits::total          257                       # number of LoadLockedReq MSHR hits
system.cpu1.dcache.LoadLockedReq_mshr_misses::.cpu1.data          620                       # number of LoadLockedReq MSHR misses
system.cpu1.dcache.LoadLockedReq_mshr_misses::total          620                       # number of LoadLockedReq MSHR misses
system.cpu1.dcache.LoadLockedReq_mshr_miss_latency::.cpu1.data     21578000                       # number of LoadLockedReq MSHR miss cycles
system.cpu1.dcache.LoadLockedReq_mshr_miss_latency::total     21578000                       # number of LoadLockedReq MSHR miss cycles
system.cpu1.dcache.LoadLockedReq_mshr_miss_rate::.cpu1.data     0.012844                       # mshr miss rate for LoadLockedReq accesses
system.cpu1.dcache.LoadLockedReq_mshr_miss_rate::total     0.012844                       # mshr miss rate for LoadLockedReq accesses
system.cpu1.dcache.LoadLockedReq_avg_mshr_miss_latency::.cpu1.data 34803.225806                       # average LoadLockedReq mshr miss latency
system.cpu1.dcache.LoadLockedReq_avg_mshr_miss_latency::total 34803.225806                       # average LoadLockedReq mshr miss latency
system.cpu1.dcache.StoreCondReq_hits::.cpu1.data        42844                       # number of StoreCondReq hits
system.cpu1.dcache.StoreCondReq_hits::total        42844                       # number of StoreCondReq hits
system.cpu1.dcache.StoreCondReq_misses::.cpu1.data         5113                       # number of StoreCondReq misses
system.cpu1.dcache.StoreCondReq_misses::total         5113                       # number of StoreCondReq misses
system.cpu1.dcache.StoreCondReq_miss_latency::.cpu1.data     32924000                       # number of StoreCondReq miss cycles
system.cpu1.dcache.StoreCondReq_miss_latency::total     32924000                       # number of StoreCondReq miss cycles
system.cpu1.dcache.StoreCondReq_accesses::.cpu1.data        47957                       # number of StoreCondReq accesses(hits+misses)
system.cpu1.dcache.StoreCondReq_accesses::total        47957                       # number of StoreCondReq accesses(hits+misses)
system.cpu1.dcache.StoreCondReq_miss_rate::.cpu1.data     0.106616                       # miss rate for StoreCondReq accesses
system.cpu1.dcache.StoreCondReq_miss_rate::total     0.106616                       # miss rate for StoreCondReq accesses
system.cpu1.dcache.StoreCondReq_avg_miss_latency::.cpu1.data  6439.272443                       # average StoreCondReq miss latency
system.cpu1.dcache.StoreCondReq_avg_miss_latency::total  6439.272443                       # average StoreCondReq miss latency
system.cpu1.dcache.StoreCondReq_mshr_misses::.cpu1.data         5035                       # number of StoreCondReq MSHR misses
system.cpu1.dcache.StoreCondReq_mshr_misses::total         5035                       # number of StoreCondReq MSHR misses
system.cpu1.dcache.StoreCondReq_mshr_miss_latency::.cpu1.data     27920000                       # number of StoreCondReq MSHR miss cycles
system.cpu1.dcache.StoreCondReq_mshr_miss_latency::total     27920000                       # number of StoreCondReq MSHR miss cycles
system.cpu1.dcache.StoreCondReq_mshr_miss_rate::.cpu1.data     0.104990                       # mshr miss rate for StoreCondReq accesses
system.cpu1.dcache.StoreCondReq_mshr_miss_rate::total     0.104990                       # mshr miss rate for StoreCondReq accesses
system.cpu1.dcache.StoreCondReq_avg_mshr_miss_latency::.cpu1.data  5545.183714                       # average StoreCondReq mshr miss latency
system.cpu1.dcache.StoreCondReq_avg_mshr_miss_latency::total  5545.183714                       # average StoreCondReq mshr miss latency
system.cpu1.dcache.StoreCondFailReq_miss_latency::.cpu1.data       681500                       # number of StoreCondFailReq miss cycles
system.cpu1.dcache.StoreCondFailReq_miss_latency::total       681500                       # number of StoreCondFailReq miss cycles
system.cpu1.dcache.StoreCondFailReq_avg_miss_latency::.cpu1.data          inf                       # average StoreCondFailReq miss latency
system.cpu1.dcache.StoreCondFailReq_avg_miss_latency::total          inf                       # average StoreCondFailReq miss latency
system.cpu1.dcache.StoreCondFailReq_mshr_miss_latency::.cpu1.data       650500                       # number of StoreCondFailReq MSHR miss cycles
system.cpu1.dcache.StoreCondFailReq_mshr_miss_latency::total       650500                       # number of StoreCondFailReq MSHR miss cycles
system.cpu1.dcache.StoreCondFailReq_avg_mshr_miss_latency::.cpu1.data          inf                       # average StoreCondFailReq mshr miss latency
system.cpu1.dcache.StoreCondFailReq_avg_mshr_miss_latency::total          inf                       # average StoreCondFailReq mshr miss latency
system.cpu1.dcache.SwapReq_hits::.cpu1.data         1633                       # number of SwapReq hits
system.cpu1.dcache.SwapReq_hits::total           1633                       # number of SwapReq hits
system.cpu1.dcache.SwapReq_misses::.cpu1.data         2805                       # number of SwapReq misses
system.cpu1.dcache.SwapReq_misses::total         2805                       # number of SwapReq misses
system.cpu1.dcache.SwapReq_miss_latency::.cpu1.data    131018000                       # number of SwapReq miss cycles
system.cpu1.dcache.SwapReq_miss_latency::total    131018000                       # number of SwapReq miss cycles
system.cpu1.dcache.SwapReq_accesses::.cpu1.data         4438                       # number of SwapReq accesses(hits+misses)
system.cpu1.dcache.SwapReq_accesses::total         4438                       # number of SwapReq accesses(hits+misses)
system.cpu1.dcache.SwapReq_miss_rate::.cpu1.data     0.632041                       # miss rate for SwapReq accesses
system.cpu1.dcache.SwapReq_miss_rate::total     0.632041                       # miss rate for SwapReq accesses
system.cpu1.dcache.SwapReq_avg_miss_latency::.cpu1.data 46708.734403                       # average SwapReq miss latency
system.cpu1.dcache.SwapReq_avg_miss_latency::total 46708.734403                       # average SwapReq miss latency
system.cpu1.dcache.SwapReq_mshr_misses::.cpu1.data         2805                       # number of SwapReq MSHR misses
system.cpu1.dcache.SwapReq_mshr_misses::total         2805                       # number of SwapReq MSHR misses
system.cpu1.dcache.SwapReq_mshr_miss_latency::.cpu1.data    128213000                       # number of SwapReq MSHR miss cycles
system.cpu1.dcache.SwapReq_mshr_miss_latency::total    128213000                       # number of SwapReq MSHR miss cycles
system.cpu1.dcache.SwapReq_mshr_miss_rate::.cpu1.data     0.632041                       # mshr miss rate for SwapReq accesses
system.cpu1.dcache.SwapReq_mshr_miss_rate::total     0.632041                       # mshr miss rate for SwapReq accesses
system.cpu1.dcache.SwapReq_avg_mshr_miss_latency::.cpu1.data 45708.734403                       # average SwapReq mshr miss latency
system.cpu1.dcache.SwapReq_avg_mshr_miss_latency::total 45708.734403                       # average SwapReq mshr miss latency
system.cpu1.dcache.tags.pwrStateResidencyTicks::UNDEFINED  70909986500                       # Cumulative time (in ticks) in various power states
system.cpu1.dcache.tags.tagsinuse           31.370612                       # Cycle average of tags in use
system.cpu1.dcache.tags.total_refs           18322507                       # Total number of references to valid blocks.
system.cpu1.dcache.tags.sampled_refs          1242324                       # Sample count of references to valid blocks.
system.cpu1.dcache.tags.avg_refs            14.748574                       # Average number of references to valid blocks.
system.cpu1.dcache.tags.warmup_cycle                0                       # Cycle when the warmup percentage was hit.
system.cpu1.dcache.tags.occ_blocks::.cpu1.data    31.370612                       # Average occupied blocks per requestor
system.cpu1.dcache.tags.occ_percent::.cpu1.data     0.980332                       # Average percentage of cache occupancy
system.cpu1.dcache.tags.occ_percent::total     0.980332                       # Average percentage of cache occupancy
system.cpu1.dcache.tags.occ_task_id_blocks::1024           28                       # Occupied blocks per task id
system.cpu1.dcache.tags.age_task_id_blocks_1024::1           28                       # Occupied blocks per task id
system.cpu1.dcache.tags.occ_task_id_percent::1024     0.875000                       # Percentage of cache occupancy per task id
system.cpu1.dcache.tags.tag_accesses         47148187                       # Number of tag accesses
system.cpu1.dcache.tags.data_accesses        47148187                       # Number of data accesses
system.cpu_clk_domain.clock                       500                       # Clock period in ticks
system.tol2bus.pwrStateResidencyTicks::UNDEFINED  70909986500                       # Cumulative time (in ticks) in various power states
system.tol2bus.trans_dist::ReadResp           2573460                       # Transaction distribution
system.tol2bus.trans_dist::WritebackDirty       814392                       # Transaction distribution
system.tol2bus.trans_dist::WritebackClean      2224631                       # Transaction distribution
system.tol2bus.trans_dist::CleanEvict         4596250                       # Transaction distribution
system.tol2bus.trans_dist::HardPFReq          2112444                       # Transaction distribution
system.tol2bus.trans_dist::HardPFResp               2                       # Transaction distribution
system.tol2bus.trans_dist::UpgradeReq           25899                       # Transaction distribution
system.tol2bus.trans_dist::SCUpgradeReq         10466                       # Transaction distribution
system.tol2bus.trans_dist::UpgradeResp          36365                       # Transaction distribution
system.tol2bus.trans_dist::SCUpgradeFailReq           60                       # Transaction distribution
system.tol2bus.trans_dist::UpgradeFailResp           60                       # Transaction distribution
system.tol2bus.trans_dist::ReadExReq           140121                       # Transaction distribution
system.tol2bus.trans_dist::ReadExResp          140121                       # Transaction distribution
system.tol2bus.trans_dist::ReadCleanReq        130062                       # Transaction distribution
system.tol2bus.trans_dist::ReadSharedReq      2443397                       # Transaction distribution
system.tol2bus.trans_dist::InvalidateReq          417                       # Transaction distribution
system.tol2bus.trans_dist::InvalidateResp          417                       # Transaction distribution
system.tol2bus.pkt_count_system.cpu0.icache.mem_side::system.l2.cpu_side       322379                       # Packet count per connected master and slave (bytes)
system.tol2bus.pkt_count_system.cpu0.dcache.mem_side::system.l2.cpu_side      4002349                       # Packet count per connected master and slave (bytes)
system.tol2bus.pkt_count_system.cpu1.icache.mem_side::system.l2.cpu_side        67767                       # Packet count per connected master and slave (bytes)
system.tol2bus.pkt_count_system.cpu1.dcache.mem_side::system.l2.cpu_side      3702985                       # Packet count per connected master and slave (bytes)
system.tol2bus.pkt_count::total               8095480                       # Packet count per connected master and slave (bytes)
system.tol2bus.pkt_size_system.cpu0.icache.mem_side::system.l2.cpu_side     13753984                       # Cumulative packet size per connected master and slave (bytes)
system.tol2bus.pkt_size_system.cpu0.dcache.mem_side::system.l2.cpu_side    168883648                       # Cumulative packet size per connected master and slave (bytes)
system.tol2bus.pkt_size_system.cpu1.icache.mem_side::system.l2.cpu_side      2891392                       # Cumulative packet size per connected master and slave (bytes)
system.tol2bus.pkt_size_system.cpu1.dcache.mem_side::system.l2.cpu_side    156155456                       # Cumulative packet size per connected master and slave (bytes)
system.tol2bus.pkt_size::total              341684480                       # Cumulative packet size per connected master and slave (bytes)
system.tol2bus.snoops                         7153086                       # Total snoops (count)
system.tol2bus.snoopTraffic                  26486272                       # Total snoop traffic (bytes)
system.tol2bus.snoop_fanout::samples          9828623                       # Request fanout histogram
system.tol2bus.snoop_fanout::mean            0.243921                       # Request fanout histogram
system.tol2bus.snoop_fanout::stdev           0.450857                       # Request fanout histogram
system.tol2bus.snoop_fanout::underflows             0      0.00%      0.00% # Request fanout histogram
system.tol2bus.snoop_fanout::0                7523836     76.55%     76.55% # Request fanout histogram
system.tol2bus.snoop_fanout::1                2212162     22.51%     99.06% # Request fanout histogram
system.tol2bus.snoop_fanout::2                  92625      0.94%    100.00% # Request fanout histogram
system.tol2bus.snoop_fanout::3                      0      0.00%    100.00% # Request fanout histogram
system.tol2bus.snoop_fanout::4                      0      0.00%    100.00% # Request fanout histogram
>>>>>>> 6be7a0502e78ebf80a09b838e3e9c0d652379c93
system.tol2bus.snoop_fanout::5                      0      0.00%    100.00% # Request fanout histogram
system.tol2bus.snoop_fanout::6                      0      0.00%    100.00% # Request fanout histogram
system.tol2bus.snoop_fanout::7                      0      0.00%    100.00% # Request fanout histogram
system.tol2bus.snoop_fanout::8                      0      0.00%    100.00% # Request fanout histogram
system.tol2bus.snoop_fanout::overflows              0      0.00%    100.00% # Request fanout histogram
system.tol2bus.snoop_fanout::min_value              0                       # Request fanout histogram
<<<<<<< HEAD
system.tol2bus.snoop_fanout::max_value              4                       # Request fanout histogram
system.tol2bus.snoop_fanout::total            7595651                       # Request fanout histogram
system.tol2bus.reqLayer0.occupancy         5492169185                       # Layer occupancy (ticks)
system.tol2bus.reqLayer0.utilization             12.8                       # Layer utilization (%)
system.tol2bus.respLayer5.occupancy         952879791                       # Layer occupancy (ticks)
system.tol2bus.respLayer5.utilization             2.2                       # Layer utilization (%)
system.tol2bus.respLayer4.occupancy          37369262                       # Layer occupancy (ticks)
system.tol2bus.respLayer4.utilization             0.1                       # Layer utilization (%)
system.tol2bus.respLayer7.occupancy         934114448                       # Layer occupancy (ticks)
system.tol2bus.respLayer7.utilization             2.2                       # Layer utilization (%)
system.tol2bus.respLayer6.occupancy          37132601                       # Layer occupancy (ticks)
system.tol2bus.respLayer6.utilization             0.1                       # Layer utilization (%)
system.tol2bus.respLayer1.occupancy        1069810327                       # Layer occupancy (ticks)
system.tol2bus.respLayer1.utilization             2.5                       # Layer utilization (%)
system.tol2bus.respLayer0.occupancy         164276429                       # Layer occupancy (ticks)
system.tol2bus.respLayer0.utilization             0.4                       # Layer utilization (%)
system.tol2bus.respLayer3.occupancy         968010121                       # Layer occupancy (ticks)
system.tol2bus.respLayer3.utilization             2.2                       # Layer utilization (%)
system.tol2bus.respLayer2.occupancy          36958111                       # Layer occupancy (ticks)
system.tol2bus.respLayer2.utilization             0.1                       # Layer utilization (%)
system.tol2bus.snoopLayer0.occupancy             9008                       # Layer occupancy (ticks)
=======
system.tol2bus.snoop_fanout::max_value              2                       # Request fanout histogram
system.tol2bus.snoop_fanout::total            9828623                       # Request fanout histogram
system.tol2bus.reqLayer0.occupancy         5382190561                       # Layer occupancy (ticks)
system.tol2bus.reqLayer0.utilization              7.6                       # Layer utilization (%)
system.tol2bus.respLayer1.occupancy        2024051638                       # Layer occupancy (ticks)
system.tol2bus.respLayer1.utilization             2.9                       # Layer utilization (%)
system.tol2bus.respLayer0.occupancy         161314792                       # Layer occupancy (ticks)
system.tol2bus.respLayer0.utilization             0.2                       # Layer utilization (%)
system.tol2bus.respLayer3.occupancy        1875023467                       # Layer occupancy (ticks)
system.tol2bus.respLayer3.utilization             2.6                       # Layer utilization (%)
system.tol2bus.respLayer2.occupancy          34066134                       # Layer occupancy (ticks)
system.tol2bus.respLayer2.utilization             0.0                       # Layer utilization (%)
system.tol2bus.snoopLayer0.occupancy             3000                       # Layer occupancy (ticks)
>>>>>>> 6be7a0502e78ebf80a09b838e3e9c0d652379c93
system.tol2bus.snoopLayer0.utilization            0.0                       # Layer utilization (%)

---------- End Simulation Statistics   ----------
