
---------- Begin Simulation Statistics ----------
final_tick                               1522071789000                       # Number of ticks from beginning of simulation (restored from checkpoints and never reset)
host_inst_rate                                  61765                       # Simulator instruction rate (inst/s)
host_mem_usage                                 702864                       # Number of bytes of host memory used
host_op_rate                                    61931                       # Simulator op (including micro ops) rate (op/s)
host_seconds                                 25357.82                       # Real time elapsed on the host
host_tick_rate                               60023762                       # Simulator tick rate (ticks/s)
sim_freq                                 1000000000000                       # Frequency of simulated ticks
sim_insts                                  1566224830                       # Number of instructions simulated
sim_ops                                    1570428595                       # Number of ops (including micro ops) simulated
sim_seconds                                  1.522072                       # Number of seconds simulated
sim_ticks                                1522071789000                       # Number of ticks simulated
system.cpu0.branchPred.BTBCorrect                   0                       # Number of correct BTB predictions (this stat may not work properly.
system.cpu0.branchPred.BTBHitPct            85.833899                       # BTB Hit Percentage
system.cpu0.branchPred.BTBHits              191140960                       # Number of BTB hits
system.cpu0.branchPred.BTBLookups           222687029                       # Number of BTB lookups
system.cpu0.branchPred.RASInCorrect                 0                       # Number of incorrect RAS predictions.
system.cpu0.branchPred.condIncorrect         16163254                       # Number of conditional branches incorrect
system.cpu0.branchPred.condPredicted        290555970                       # Number of conditional branches predicted
system.cpu0.branchPred.indirectHits          28721738                       # Number of indirect target hits.
system.cpu0.branchPred.indirectLookups       29343786                       # Number of indirect predictor lookups.
system.cpu0.branchPred.indirectMisses          622048                       # Number of indirect misses.
system.cpu0.branchPred.lookups              374910628                       # Number of BP lookups
system.cpu0.branchPred.usedRAS                      0                       # Number of times the RAS was used to get a target.
system.cpu0.branchPredindirectMispredicted      2276883                       # Number of mispredicted indirect branches.
system.cpu0.commit.amos                       2100281                       # Number of atomic instructions committed
system.cpu0.commit.branchMispredicts          9953610                       # The number of times a branch was mispredicted
system.cpu0.commit.branches                 343026515                       # Number of branches committed
system.cpu0.commit.bw_lim_events             49420114                       # number cycles where commit BW limit reached
system.cpu0.commit.commitNonSpecStalls        6309773                       # The number of times commit has been forced to stall to communicate backwards
system.cpu0.commit.commitSquashedInsts      137956907                       # The number of squashed insts skipped by commit
system.cpu0.commit.committedInsts          1408187253                       # Number of instructions committed
system.cpu0.commit.committedOps            1410290835                       # Number of ops (including micro ops) committed
system.cpu0.commit.committed_per_cycle::samples   2491290704                       # Number of insts commited each cycle
system.cpu0.commit.committed_per_cycle::mean     0.566088                       # Number of insts commited each cycle
system.cpu0.commit.committed_per_cycle::stdev     1.398291                       # Number of insts commited each cycle
system.cpu0.commit.committed_per_cycle::underflows            0      0.00%      0.00% # Number of insts commited each cycle
system.cpu0.commit.committed_per_cycle::0   1850257863     74.27%     74.27% # Number of insts commited each cycle
system.cpu0.commit.committed_per_cycle::1    372076070     14.94%     89.20% # Number of insts commited each cycle
system.cpu0.commit.committed_per_cycle::2     92658950      3.72%     92.92% # Number of insts commited each cycle
system.cpu0.commit.committed_per_cycle::3     77793436      3.12%     96.05% # Number of insts commited each cycle
system.cpu0.commit.committed_per_cycle::4     32218519      1.29%     97.34% # Number of insts commited each cycle
system.cpu0.commit.committed_per_cycle::5      8915651      0.36%     97.70% # Number of insts commited each cycle
system.cpu0.commit.committed_per_cycle::6      4947393      0.20%     97.90% # Number of insts commited each cycle
system.cpu0.commit.committed_per_cycle::7      3002708      0.12%     98.02% # Number of insts commited each cycle
system.cpu0.commit.committed_per_cycle::8     49420114      1.98%    100.00% # Number of insts commited each cycle
system.cpu0.commit.committed_per_cycle::overflows            0      0.00%    100.00% # Number of insts commited each cycle
system.cpu0.commit.committed_per_cycle::min_value            0                       # Number of insts commited each cycle
system.cpu0.commit.committed_per_cycle::max_value            8                       # Number of insts commited each cycle
system.cpu0.commit.committed_per_cycle::total   2491290704                       # Number of insts commited each cycle
system.cpu0.commit.fp_insts                        50                       # Number of committed floating point instructions.
system.cpu0.commit.function_calls            29098512                       # Number of function calls committed.
system.cpu0.commit.int_insts               1363649042                       # Number of committed integer instructions.
system.cpu0.commit.loads                    423705698                       # Number of loads committed
system.cpu0.commit.membars                    4203750                       # Number of memory barriers committed
system.cpu0.commit.op_class_0::No_OpClass      4203756      0.30%      0.30% # Class of committed instruction
system.cpu0.commit.op_class_0::IntAlu       798541202     56.62%     56.92% # Class of committed instruction
system.cpu0.commit.op_class_0::IntMult       12621993      0.89%     57.82% # Class of committed instruction
system.cpu0.commit.op_class_0::IntDiv         3672708      0.26%     58.08% # Class of committed instruction
system.cpu0.commit.op_class_0::FloatAdd             0      0.00%     58.08% # Class of committed instruction
system.cpu0.commit.op_class_0::FloatCmp             4      0.00%     58.08% # Class of committed instruction
system.cpu0.commit.op_class_0::FloatCvt            12      0.00%     58.08% # Class of committed instruction
system.cpu0.commit.op_class_0::FloatMult            0      0.00%     58.08% # Class of committed instruction
system.cpu0.commit.op_class_0::FloatMultAcc            0      0.00%     58.08% # Class of committed instruction
system.cpu0.commit.op_class_0::FloatDiv             2      0.00%     58.08% # Class of committed instruction
system.cpu0.commit.op_class_0::FloatMisc            4      0.00%     58.08% # Class of committed instruction
system.cpu0.commit.op_class_0::FloatSqrt            0      0.00%     58.08% # Class of committed instruction
system.cpu0.commit.op_class_0::SimdAdd              0      0.00%     58.08% # Class of committed instruction
system.cpu0.commit.op_class_0::SimdAddAcc            0      0.00%     58.08% # Class of committed instruction
system.cpu0.commit.op_class_0::SimdAlu              0      0.00%     58.08% # Class of committed instruction
system.cpu0.commit.op_class_0::SimdCmp              0      0.00%     58.08% # Class of committed instruction
system.cpu0.commit.op_class_0::SimdCvt              0      0.00%     58.08% # Class of committed instruction
system.cpu0.commit.op_class_0::SimdMisc             0      0.00%     58.08% # Class of committed instruction
system.cpu0.commit.op_class_0::SimdMult             0      0.00%     58.08% # Class of committed instruction
system.cpu0.commit.op_class_0::SimdMultAcc            0      0.00%     58.08% # Class of committed instruction
system.cpu0.commit.op_class_0::SimdShift            0      0.00%     58.08% # Class of committed instruction
system.cpu0.commit.op_class_0::SimdShiftAcc            0      0.00%     58.08% # Class of committed instruction
system.cpu0.commit.op_class_0::SimdDiv              0      0.00%     58.08% # Class of committed instruction
system.cpu0.commit.op_class_0::SimdSqrt             0      0.00%     58.08% # Class of committed instruction
system.cpu0.commit.op_class_0::SimdFloatAdd            0      0.00%     58.08% # Class of committed instruction
system.cpu0.commit.op_class_0::SimdFloatAlu            0      0.00%     58.08% # Class of committed instruction
system.cpu0.commit.op_class_0::SimdFloatCmp            0      0.00%     58.08% # Class of committed instruction
system.cpu0.commit.op_class_0::SimdFloatCvt            0      0.00%     58.08% # Class of committed instruction
system.cpu0.commit.op_class_0::SimdFloatDiv            0      0.00%     58.08% # Class of committed instruction
system.cpu0.commit.op_class_0::SimdFloatMisc            0      0.00%     58.08% # Class of committed instruction
system.cpu0.commit.op_class_0::SimdFloatMult            0      0.00%     58.08% # Class of committed instruction
system.cpu0.commit.op_class_0::SimdFloatMultAcc            0      0.00%     58.08% # Class of committed instruction
system.cpu0.commit.op_class_0::SimdFloatSqrt            0      0.00%     58.08% # Class of committed instruction
system.cpu0.commit.op_class_0::SimdReduceAdd            0      0.00%     58.08% # Class of committed instruction
system.cpu0.commit.op_class_0::SimdReduceAlu            0      0.00%     58.08% # Class of committed instruction
system.cpu0.commit.op_class_0::SimdReduceCmp            0      0.00%     58.08% # Class of committed instruction
system.cpu0.commit.op_class_0::SimdFloatReduceAdd            0      0.00%     58.08% # Class of committed instruction
system.cpu0.commit.op_class_0::SimdFloatReduceCmp            0      0.00%     58.08% # Class of committed instruction
system.cpu0.commit.op_class_0::SimdAes              0      0.00%     58.08% # Class of committed instruction
system.cpu0.commit.op_class_0::SimdAesMix            0      0.00%     58.08% # Class of committed instruction
system.cpu0.commit.op_class_0::SimdSha1Hash            0      0.00%     58.08% # Class of committed instruction
system.cpu0.commit.op_class_0::SimdSha1Hash2            0      0.00%     58.08% # Class of committed instruction
system.cpu0.commit.op_class_0::SimdSha256Hash            0      0.00%     58.08% # Class of committed instruction
system.cpu0.commit.op_class_0::SimdSha256Hash2            0      0.00%     58.08% # Class of committed instruction
system.cpu0.commit.op_class_0::SimdShaSigma2            0      0.00%     58.08% # Class of committed instruction
system.cpu0.commit.op_class_0::SimdShaSigma3            0      0.00%     58.08% # Class of committed instruction
system.cpu0.commit.op_class_0::SimdPredAlu            0      0.00%     58.08% # Class of committed instruction
system.cpu0.commit.op_class_0::MemRead      425805971     30.19%     88.27% # Class of committed instruction
system.cpu0.commit.op_class_0::MemWrite     165445155     11.73%    100.00% # Class of committed instruction
system.cpu0.commit.op_class_0::FloatMemRead            8      0.00%    100.00% # Class of committed instruction
system.cpu0.commit.op_class_0::FloatMemWrite           20      0.00%    100.00% # Class of committed instruction
system.cpu0.commit.op_class_0::IprAccess            0      0.00%    100.00% # Class of committed instruction
system.cpu0.commit.op_class_0::InstPrefetch            0      0.00%    100.00% # Class of committed instruction
system.cpu0.commit.op_class_0::total       1410290835                       # Class of committed instruction
system.cpu0.commit.refs                     591251154                       # Number of memory references committed
system.cpu0.commit.swp_count                        0                       # Number of s/w prefetches committed
system.cpu0.commit.vec_insts                        0                       # Number of committed Vector instructions.
system.cpu0.committedInsts                 1408187253                       # Number of Instructions Simulated
system.cpu0.committedOps                   1410290835                       # Number of Ops (including micro ops) Simulated
system.cpu0.cpi                              2.155239                       # CPI: Cycles Per Instruction
system.cpu0.cpi_total                        2.155239                       # CPI: Total CPI of All Threads
system.cpu0.decode.BlockedCycles            523699672                       # Number of cycles decode is blocked
system.cpu0.decode.BranchMispred              6222033                       # Number of times decode detected a branch misprediction
system.cpu0.decode.BranchResolved           188430046                       # Number of times decode resolved a branch
system.cpu0.decode.DecodedInsts            1570554466                       # Number of instructions handled by decode
system.cpu0.decode.IdleCycles               879943193                       # Number of cycles decode is idle
system.cpu0.decode.RunCycles               1092963410                       # Number of cycles decode is running
system.cpu0.decode.SquashCycles               9968899                       # Number of cycles decode is squashing
system.cpu0.decode.SquashedInsts             15842985                       # Number of squashed instructions handled by decode
system.cpu0.decode.UnblockCycles              9299166                       # Number of cycles decode is unblocking
system.cpu0.dtb.accesses                            0                       # DTB accesses
system.cpu0.dtb.hits                                0                       # DTB hits
system.cpu0.dtb.misses                              0                       # DTB misses
system.cpu0.dtb.read_accesses                       0                       # DTB read accesses
system.cpu0.dtb.read_hits                           0                       # DTB read hits
system.cpu0.dtb.read_misses                         0                       # DTB read misses
system.cpu0.dtb.write_accesses                      0                       # DTB write accesses
system.cpu0.dtb.write_hits                          0                       # DTB write hits
system.cpu0.dtb.write_misses                        0                       # DTB write misses
system.cpu0.fetch.Branches                  374910628                       # Number of branches that fetch encountered
system.cpu0.fetch.CacheLines                280142527                       # Number of cache lines fetched
system.cpu0.fetch.Cycles                   1619266908                       # Number of cycles fetch has run and was not squashing or blocked
system.cpu0.fetch.IcacheSquashes              5743390                       # Number of outstanding Icache misses that were squashed
system.cpu0.fetch.IcacheWaitRetryStallCycles           80                       # Number of stall cycles due to full MSHR
system.cpu0.fetch.Insts                    1600981708                       # Number of instructions fetch has processed
system.cpu0.fetch.MiscStallCycles                 323                       # Number of cycles fetch has spent waiting on interrupts, or bad addresses, or out of MSHRs
system.cpu0.fetch.PendingTrapStallCycles          711                       # Number of stall cycles due to pending traps
system.cpu0.fetch.SquashCycles               32357304                       # Number of cycles fetch has spent squashing
system.cpu0.fetch.branchRate                 0.123530                       # Number of branch fetches per cycle
system.cpu0.fetch.icacheStallCycles         880427666                       # Number of cycles fetch is stalled on an Icache miss
system.cpu0.fetch.predictedBranches         219862698                       # Number of branches that fetch has predicted taken
system.cpu0.fetch.rate                       0.527510                       # Number of inst fetches per cycle
system.cpu0.fetch.rateDist::samples        2515874340                       # Number of instructions fetched each cycle (Total)
system.cpu0.fetch.rateDist::mean             0.637188                       # Number of instructions fetched each cycle (Total)
system.cpu0.fetch.rateDist::stdev            0.876333                       # Number of instructions fetched each cycle (Total)
system.cpu0.fetch.rateDist::underflows              0      0.00%      0.00% # Number of instructions fetched each cycle (Total)
system.cpu0.fetch.rateDist::0              1360987085     54.10%     54.10% # Number of instructions fetched each cycle (Total)
system.cpu0.fetch.rateDist::1               862242169     34.27%     88.37% # Number of instructions fetched each cycle (Total)
system.cpu0.fetch.rateDist::2               182011150      7.23%     95.60% # Number of instructions fetched each cycle (Total)
system.cpu0.fetch.rateDist::3                84765844      3.37%     98.97% # Number of instructions fetched each cycle (Total)
system.cpu0.fetch.rateDist::4                12217814      0.49%     99.46% # Number of instructions fetched each cycle (Total)
system.cpu0.fetch.rateDist::5                10356668      0.41%     99.87% # Number of instructions fetched each cycle (Total)
system.cpu0.fetch.rateDist::6                 1189348      0.05%     99.92% # Number of instructions fetched each cycle (Total)
system.cpu0.fetch.rateDist::7                 2100995      0.08%    100.00% # Number of instructions fetched each cycle (Total)
system.cpu0.fetch.rateDist::8                    3267      0.00%    100.00% # Number of instructions fetched each cycle (Total)
system.cpu0.fetch.rateDist::overflows               0      0.00%    100.00% # Number of instructions fetched each cycle (Total)
system.cpu0.fetch.rateDist::min_value               0                       # Number of instructions fetched each cycle (Total)
system.cpu0.fetch.rateDist::max_value               8                       # Number of instructions fetched each cycle (Total)
system.cpu0.fetch.rateDist::total          2515874340                       # Number of instructions fetched each cycle (Total)
system.cpu0.fp_regfile_reads                       44                       # number of floating regfile reads
system.cpu0.fp_regfile_writes                      22                       # number of floating regfile writes
system.cpu0.idleCycles                      519105256                       # Total number of cycles that the CPU has spent unscheduled due to idling
system.cpu0.iew.branchMispredicts            10079516                       # Number of branch mispredicts detected at execute
system.cpu0.iew.exec_branches               359940400                       # Number of branches executed
system.cpu0.iew.exec_nop                            0                       # number of nop insts executed
system.cpu0.iew.exec_rate                    0.504208                       # Inst execution rate
system.cpu0.iew.exec_refs                   664956969                       # number of memory reference insts executed
system.cpu0.iew.exec_stores                 190882529                       # Number of stores executed
system.cpu0.iew.exec_swp                            0                       # number of swp insts executed
system.cpu0.iew.iewBlockCycles              403687676                       # Number of cycles IEW is blocking
system.cpu0.iew.iewDispLoadInsts            473289895                       # Number of dispatched load instructions
system.cpu0.iew.iewDispNonSpecInsts           2106291                       # Number of dispatched non-speculative instructions
system.cpu0.iew.iewDispSquashedInsts          5737601                       # Number of squashed instructions skipped by dispatch
system.cpu0.iew.iewDispStoreInsts           194067017                       # Number of dispatched store instructions
system.cpu0.iew.iewDispatchedInsts         1548193439                       # Number of instructions dispatched to IQ
system.cpu0.iew.iewExecLoadInsts            474074440                       # Number of load instructions executed
system.cpu0.iew.iewExecSquashedInsts          7900137                       # Number of squashed instructions skipped in execute
system.cpu0.iew.iewExecutedInsts           1530262196                       # Number of executed instructions
system.cpu0.iew.iewIQFullEvents               1569430                       # Number of times the IQ has become full, causing a stall
system.cpu0.iew.iewIdleCycles                       0                       # Number of cycles IEW is idle
system.cpu0.iew.iewLSQFullEvents             19063967                       # Number of times the LSQ has become full, causing a stall
system.cpu0.iew.iewSquashCycles               9968899                       # Number of cycles IEW is squashing
system.cpu0.iew.iewUnblockCycles             23284562                       # Number of cycles IEW is unblocking
system.cpu0.iew.lsq.thread0.blockedLoads            0                       # Number of blocked loads due to partial load-store forwarding
system.cpu0.iew.lsq.thread0.cacheBlocked       640003                       # Number of times an access to memory failed due to the cache being blocked
system.cpu0.iew.lsq.thread0.forwLoads        33577347                       # Number of loads that had data forwarded from stores
system.cpu0.iew.lsq.thread0.ignoredResponses        31281                       # Number of memory responses ignored because the instruction is squashed
system.cpu0.iew.lsq.thread0.invAddrLoads            0                       # Number of loads ignored due to an invalid address
system.cpu0.iew.lsq.thread0.invAddrSwpfs            0                       # Number of software prefetches ignored due to an invalid address
system.cpu0.iew.lsq.thread0.memOrderViolation        15718                       # Number of memory ordering violations
system.cpu0.iew.lsq.thread0.rescheduledLoads      7964648                       # Number of loads that were rescheduled
system.cpu0.iew.lsq.thread0.squashedLoads     49584197                       # Number of loads squashed
system.cpu0.iew.lsq.thread0.squashedStores     26521550                       # Number of stores squashed
system.cpu0.iew.memOrderViolationEvents         15718                       # Number of memory order violations
system.cpu0.iew.predictedNotTakenIncorrect       535126                       # Number of branches that were predicted not taken incorrectly
system.cpu0.iew.predictedTakenIncorrect       9544390                       # Number of branches that were predicted taken incorrectly
system.cpu0.iew.wb_consumers                673195965                       # num instructions consuming a value
system.cpu0.iew.wb_count                   1517686339                       # cumulative count of insts written-back
system.cpu0.iew.wb_fanout                    0.847535                       # average fanout of values written-back
system.cpu0.iew.wb_producers                570556959                       # num instructions producing a value
system.cpu0.iew.wb_rate                      0.500065                       # insts written-back per cycle
system.cpu0.iew.wb_sent                    1517806066                       # cumulative count of insts sent to commit
system.cpu0.int_regfile_reads              1887307587                       # number of integer regfile reads
system.cpu0.int_regfile_writes              980419102                       # number of integer regfile writes
system.cpu0.ipc                              0.463986                       # IPC: Instructions Per Cycle
system.cpu0.ipc_total                        0.463986                       # IPC: Total IPC of All Threads
system.cpu0.iq.FU_type_0::No_OpClass          4205736      0.27%      0.27% # Type of FU issued
system.cpu0.iq.FU_type_0::IntAlu            851246212     55.34%     55.62% # Type of FU issued
system.cpu0.iq.FU_type_0::IntMult            12624264      0.82%     56.44% # Type of FU issued
system.cpu0.iq.FU_type_0::IntDiv              3673580      0.24%     56.67% # Type of FU issued
system.cpu0.iq.FU_type_0::FloatAdd                  0      0.00%     56.67% # Type of FU issued
system.cpu0.iq.FU_type_0::FloatCmp                  4      0.00%     56.67% # Type of FU issued
system.cpu0.iq.FU_type_0::FloatCvt                 12      0.00%     56.67% # Type of FU issued
system.cpu0.iq.FU_type_0::FloatMult                 0      0.00%     56.67% # Type of FU issued
system.cpu0.iq.FU_type_0::FloatMultAcc              0      0.00%     56.67% # Type of FU issued
system.cpu0.iq.FU_type_0::FloatDiv                  2      0.00%     56.67% # Type of FU issued
system.cpu0.iq.FU_type_0::FloatMisc                 4      0.00%     56.67% # Type of FU issued
system.cpu0.iq.FU_type_0::FloatSqrt                 0      0.00%     56.67% # Type of FU issued
system.cpu0.iq.FU_type_0::SimdAdd                   0      0.00%     56.67% # Type of FU issued
system.cpu0.iq.FU_type_0::SimdAddAcc                0      0.00%     56.67% # Type of FU issued
system.cpu0.iq.FU_type_0::SimdAlu                   0      0.00%     56.67% # Type of FU issued
system.cpu0.iq.FU_type_0::SimdCmp                   0      0.00%     56.67% # Type of FU issued
system.cpu0.iq.FU_type_0::SimdCvt                   0      0.00%     56.67% # Type of FU issued
system.cpu0.iq.FU_type_0::SimdMisc                  0      0.00%     56.67% # Type of FU issued
system.cpu0.iq.FU_type_0::SimdMult                  0      0.00%     56.67% # Type of FU issued
system.cpu0.iq.FU_type_0::SimdMultAcc               0      0.00%     56.67% # Type of FU issued
system.cpu0.iq.FU_type_0::SimdShift                 0      0.00%     56.67% # Type of FU issued
system.cpu0.iq.FU_type_0::SimdShiftAcc              0      0.00%     56.67% # Type of FU issued
system.cpu0.iq.FU_type_0::SimdDiv                   0      0.00%     56.67% # Type of FU issued
system.cpu0.iq.FU_type_0::SimdSqrt                  0      0.00%     56.67% # Type of FU issued
system.cpu0.iq.FU_type_0::SimdFloatAdd              0      0.00%     56.67% # Type of FU issued
system.cpu0.iq.FU_type_0::SimdFloatAlu              0      0.00%     56.67% # Type of FU issued
system.cpu0.iq.FU_type_0::SimdFloatCmp              0      0.00%     56.67% # Type of FU issued
system.cpu0.iq.FU_type_0::SimdFloatCvt              0      0.00%     56.67% # Type of FU issued
system.cpu0.iq.FU_type_0::SimdFloatDiv              0      0.00%     56.67% # Type of FU issued
system.cpu0.iq.FU_type_0::SimdFloatMisc             0      0.00%     56.67% # Type of FU issued
system.cpu0.iq.FU_type_0::SimdFloatMult             0      0.00%     56.67% # Type of FU issued
system.cpu0.iq.FU_type_0::SimdFloatMultAcc            0      0.00%     56.67% # Type of FU issued
system.cpu0.iq.FU_type_0::SimdFloatSqrt             0      0.00%     56.67% # Type of FU issued
system.cpu0.iq.FU_type_0::SimdReduceAdd             0      0.00%     56.67% # Type of FU issued
system.cpu0.iq.FU_type_0::SimdReduceAlu             0      0.00%     56.67% # Type of FU issued
system.cpu0.iq.FU_type_0::SimdReduceCmp             0      0.00%     56.67% # Type of FU issued
system.cpu0.iq.FU_type_0::SimdFloatReduceAdd            0      0.00%     56.67% # Type of FU issued
system.cpu0.iq.FU_type_0::SimdFloatReduceCmp            0      0.00%     56.67% # Type of FU issued
system.cpu0.iq.FU_type_0::SimdAes                   0      0.00%     56.67% # Type of FU issued
system.cpu0.iq.FU_type_0::SimdAesMix                0      0.00%     56.67% # Type of FU issued
system.cpu0.iq.FU_type_0::SimdSha1Hash              0      0.00%     56.67% # Type of FU issued
system.cpu0.iq.FU_type_0::SimdSha1Hash2             0      0.00%     56.67% # Type of FU issued
system.cpu0.iq.FU_type_0::SimdSha256Hash            0      0.00%     56.67% # Type of FU issued
system.cpu0.iq.FU_type_0::SimdSha256Hash2            0      0.00%     56.67% # Type of FU issued
system.cpu0.iq.FU_type_0::SimdShaSigma2             0      0.00%     56.67% # Type of FU issued
system.cpu0.iq.FU_type_0::SimdShaSigma3             0      0.00%     56.67% # Type of FU issued
system.cpu0.iq.FU_type_0::SimdPredAlu               0      0.00%     56.67% # Type of FU issued
system.cpu0.iq.FU_type_0::MemRead           477467154     31.04%     87.72% # Type of FU issued
system.cpu0.iq.FU_type_0::MemWrite          188945338     12.28%    100.00% # Type of FU issued
system.cpu0.iq.FU_type_0::FloatMemRead              8      0.00%    100.00% # Type of FU issued
system.cpu0.iq.FU_type_0::FloatMemWrite            20      0.00%    100.00% # Type of FU issued
system.cpu0.iq.FU_type_0::IprAccess                 0      0.00%    100.00% # Type of FU issued
system.cpu0.iq.FU_type_0::InstPrefetch              0      0.00%    100.00% # Type of FU issued
system.cpu0.iq.FU_type_0::total            1538162334                       # Type of FU issued
system.cpu0.iq.fp_alu_accesses                     54                       # Number of floating point alu accesses
system.cpu0.iq.fp_inst_queue_reads                104                       # Number of floating instruction queue reads
system.cpu0.iq.fp_inst_queue_wakeup_accesses           50                       # Number of floating instruction queue wakeup accesses
system.cpu0.iq.fp_inst_queue_writes                50                       # Number of floating instruction queue writes
system.cpu0.iq.fu_busy_cnt                    5516672                       # FU busy when requested
system.cpu0.iq.fu_busy_rate                  0.003587                       # FU busy rate (busy events/executed inst)
system.cpu0.iq.fu_full::No_OpClass                  0      0.00%      0.00% # attempts to use FU when none available
system.cpu0.iq.fu_full::IntAlu                 959259     17.39%     17.39% # attempts to use FU when none available
system.cpu0.iq.fu_full::IntMult                  3443      0.06%     17.45% # attempts to use FU when none available
system.cpu0.iq.fu_full::IntDiv                 909458     16.49%     33.94% # attempts to use FU when none available
system.cpu0.iq.fu_full::FloatAdd                    0      0.00%     33.94% # attempts to use FU when none available
system.cpu0.iq.fu_full::FloatCmp                    0      0.00%     33.94% # attempts to use FU when none available
system.cpu0.iq.fu_full::FloatCvt                    0      0.00%     33.94% # attempts to use FU when none available
system.cpu0.iq.fu_full::FloatMult                   0      0.00%     33.94% # attempts to use FU when none available
system.cpu0.iq.fu_full::FloatMultAcc                0      0.00%     33.94% # attempts to use FU when none available
system.cpu0.iq.fu_full::FloatDiv                    0      0.00%     33.94% # attempts to use FU when none available
system.cpu0.iq.fu_full::FloatMisc                   0      0.00%     33.94% # attempts to use FU when none available
system.cpu0.iq.fu_full::FloatSqrt                   0      0.00%     33.94% # attempts to use FU when none available
system.cpu0.iq.fu_full::SimdAdd                     0      0.00%     33.94% # attempts to use FU when none available
system.cpu0.iq.fu_full::SimdAddAcc                  0      0.00%     33.94% # attempts to use FU when none available
system.cpu0.iq.fu_full::SimdAlu                     0      0.00%     33.94% # attempts to use FU when none available
system.cpu0.iq.fu_full::SimdCmp                     0      0.00%     33.94% # attempts to use FU when none available
system.cpu0.iq.fu_full::SimdCvt                     0      0.00%     33.94% # attempts to use FU when none available
system.cpu0.iq.fu_full::SimdMisc                    0      0.00%     33.94% # attempts to use FU when none available
system.cpu0.iq.fu_full::SimdMult                    0      0.00%     33.94% # attempts to use FU when none available
system.cpu0.iq.fu_full::SimdMultAcc                 0      0.00%     33.94% # attempts to use FU when none available
system.cpu0.iq.fu_full::SimdShift                   0      0.00%     33.94% # attempts to use FU when none available
system.cpu0.iq.fu_full::SimdShiftAcc                0      0.00%     33.94% # attempts to use FU when none available
system.cpu0.iq.fu_full::SimdDiv                     0      0.00%     33.94% # attempts to use FU when none available
system.cpu0.iq.fu_full::SimdSqrt                    0      0.00%     33.94% # attempts to use FU when none available
system.cpu0.iq.fu_full::SimdFloatAdd                0      0.00%     33.94% # attempts to use FU when none available
system.cpu0.iq.fu_full::SimdFloatAlu                0      0.00%     33.94% # attempts to use FU when none available
system.cpu0.iq.fu_full::SimdFloatCmp                0      0.00%     33.94% # attempts to use FU when none available
system.cpu0.iq.fu_full::SimdFloatCvt                0      0.00%     33.94% # attempts to use FU when none available
system.cpu0.iq.fu_full::SimdFloatDiv                0      0.00%     33.94% # attempts to use FU when none available
system.cpu0.iq.fu_full::SimdFloatMisc               0      0.00%     33.94% # attempts to use FU when none available
system.cpu0.iq.fu_full::SimdFloatMult               0      0.00%     33.94% # attempts to use FU when none available
system.cpu0.iq.fu_full::SimdFloatMultAcc            0      0.00%     33.94% # attempts to use FU when none available
system.cpu0.iq.fu_full::SimdFloatSqrt               0      0.00%     33.94% # attempts to use FU when none available
system.cpu0.iq.fu_full::SimdReduceAdd               0      0.00%     33.94% # attempts to use FU when none available
system.cpu0.iq.fu_full::SimdReduceAlu               0      0.00%     33.94% # attempts to use FU when none available
system.cpu0.iq.fu_full::SimdReduceCmp               0      0.00%     33.94% # attempts to use FU when none available
system.cpu0.iq.fu_full::SimdFloatReduceAdd            0      0.00%     33.94% # attempts to use FU when none available
system.cpu0.iq.fu_full::SimdFloatReduceCmp            0      0.00%     33.94% # attempts to use FU when none available
system.cpu0.iq.fu_full::SimdAes                     0      0.00%     33.94% # attempts to use FU when none available
system.cpu0.iq.fu_full::SimdAesMix                  0      0.00%     33.94% # attempts to use FU when none available
system.cpu0.iq.fu_full::SimdSha1Hash                0      0.00%     33.94% # attempts to use FU when none available
system.cpu0.iq.fu_full::SimdSha1Hash2               0      0.00%     33.94% # attempts to use FU when none available
system.cpu0.iq.fu_full::SimdSha256Hash              0      0.00%     33.94% # attempts to use FU when none available
system.cpu0.iq.fu_full::SimdSha256Hash2             0      0.00%     33.94% # attempts to use FU when none available
system.cpu0.iq.fu_full::SimdShaSigma2               0      0.00%     33.94% # attempts to use FU when none available
system.cpu0.iq.fu_full::SimdShaSigma3               0      0.00%     33.94% # attempts to use FU when none available
system.cpu0.iq.fu_full::SimdPredAlu                 0      0.00%     33.94% # attempts to use FU when none available
system.cpu0.iq.fu_full::MemRead               3016626     54.68%     88.62% # attempts to use FU when none available
system.cpu0.iq.fu_full::MemWrite               627882     11.38%    100.00% # attempts to use FU when none available
system.cpu0.iq.fu_full::FloatMemRead                0      0.00%    100.00% # attempts to use FU when none available
system.cpu0.iq.fu_full::FloatMemWrite               4      0.00%    100.00% # attempts to use FU when none available
system.cpu0.iq.fu_full::IprAccess                   0      0.00%    100.00% # attempts to use FU when none available
system.cpu0.iq.fu_full::InstPrefetch                0      0.00%    100.00% # attempts to use FU when none available
system.cpu0.iq.int_alu_accesses            1539473216                       # Number of integer alu accesses
system.cpu0.iq.int_inst_queue_reads        5598063093                       # Number of integer instruction queue reads
system.cpu0.iq.int_inst_queue_wakeup_accesses   1517686289                       # Number of integer instruction queue wakeup accesses
system.cpu0.iq.int_inst_queue_writes       1686111242                       # Number of integer instruction queue writes
system.cpu0.iq.iqInstsAdded                1541883078                       # Number of instructions added to the IQ (excludes non-spec)
system.cpu0.iq.iqInstsIssued               1538162334                       # Number of instructions issued
system.cpu0.iq.iqNonSpecInstsAdded            6310361                       # Number of non-speculative instructions added to the IQ
system.cpu0.iq.iqSquashedInstsExamined      137902519                       # Number of squashed instructions iterated over during squash; mainly for profiling
system.cpu0.iq.iqSquashedInstsIssued           347518                       # Number of squashed instructions issued
system.cpu0.iq.iqSquashedNonSpecRemoved           588                       # Number of squashed non-spec instructions that were removed
system.cpu0.iq.iqSquashedOperandsExamined     31496612                       # Number of squashed operands that are examined and possibly removed from graph
system.cpu0.iq.issued_per_cycle::samples   2515874340                       # Number of insts issued each cycle
system.cpu0.iq.issued_per_cycle::mean        0.611383                       # Number of insts issued each cycle
system.cpu0.iq.issued_per_cycle::stdev       0.844269                       # Number of insts issued each cycle
system.cpu0.iq.issued_per_cycle::underflows            0      0.00%      0.00% # Number of insts issued each cycle
system.cpu0.iq.issued_per_cycle::0         1414022827     56.20%     56.20% # Number of insts issued each cycle
system.cpu0.iq.issued_per_cycle::1          767770622     30.52%     86.72% # Number of insts issued each cycle
system.cpu0.iq.issued_per_cycle::2          268581430     10.68%     97.40% # Number of insts issued each cycle
system.cpu0.iq.issued_per_cycle::3           43059981      1.71%     99.11% # Number of insts issued each cycle
system.cpu0.iq.issued_per_cycle::4           14565344      0.58%     99.69% # Number of insts issued each cycle
system.cpu0.iq.issued_per_cycle::5            2942332      0.12%     99.80% # Number of insts issued each cycle
system.cpu0.iq.issued_per_cycle::6            3750733      0.15%     99.95% # Number of insts issued each cycle
system.cpu0.iq.issued_per_cycle::7             877093      0.03%     99.99% # Number of insts issued each cycle
system.cpu0.iq.issued_per_cycle::8             303978      0.01%    100.00% # Number of insts issued each cycle
system.cpu0.iq.issued_per_cycle::overflows            0      0.00%    100.00% # Number of insts issued each cycle
system.cpu0.iq.issued_per_cycle::min_value            0                       # Number of insts issued each cycle
system.cpu0.iq.issued_per_cycle::max_value            8                       # Number of insts issued each cycle
system.cpu0.iq.issued_per_cycle::total     2515874340                       # Number of insts issued each cycle
system.cpu0.iq.rate                          0.506811                       # Inst issue rate
system.cpu0.iq.vec_alu_accesses                     0                       # Number of vector alu accesses
system.cpu0.iq.vec_inst_queue_reads                 0                       # Number of vector instruction queue reads
system.cpu0.iq.vec_inst_queue_wakeup_accesses            0                       # Number of vector instruction queue wakeup accesses
system.cpu0.iq.vec_inst_queue_writes                0                       # Number of vector instruction queue writes
system.cpu0.itb.accesses                            0                       # DTB accesses
system.cpu0.itb.hits                                0                       # DTB hits
system.cpu0.itb.misses                              0                       # DTB misses
system.cpu0.itb.read_accesses                       0                       # DTB read accesses
system.cpu0.itb.read_hits                           0                       # DTB read hits
system.cpu0.itb.read_misses                         0                       # DTB read misses
system.cpu0.itb.write_accesses                      0                       # DTB write accesses
system.cpu0.itb.write_hits                          0                       # DTB write hits
system.cpu0.itb.write_misses                        0                       # DTB write misses
system.cpu0.memDep0.conflictingLoads         21712138                       # Number of conflicting loads.
system.cpu0.memDep0.conflictingStores         9093572                       # Number of conflicting stores.
system.cpu0.memDep0.insertedLoads           473289895                       # Number of loads inserted to the mem dependence unit.
system.cpu0.memDep0.insertedStores          194067017                       # Number of stores inserted to the mem dependence unit.
system.cpu0.misc_regfile_reads                   1893                       # number of misc regfile reads
system.cpu0.misc_regfile_writes                    22                       # number of misc regfile writes
system.cpu0.numCycles                      3034979596                       # number of cpu cycles simulated
system.cpu0.numWorkItemsCompleted                   0                       # number of work items this cpu completed
system.cpu0.numWorkItemsStarted                     0                       # number of work items this cpu started
system.cpu0.quiesceCycles                    10683623                       # Total number of cycles that CPU has spent quiesced or waiting for an interrupt
system.cpu0.rename.BlockCycles              444935852                       # Number of cycles rename is blocking
system.cpu0.rename.CommittedMaps            911014542                       # Number of HB maps that are committed
system.cpu0.rename.IQFullEvents              16006167                       # Number of times rename has blocked due to IQ full
system.cpu0.rename.IdleCycles               892106177                       # Number of cycles rename is idle
system.cpu0.rename.LQFullEvents              29549377                       # Number of times rename has blocked due to LQ full
system.cpu0.rename.ROBFullEvents                53344                       # Number of times rename has blocked due to ROB full
system.cpu0.rename.RenameLookups           1932097843                       # Number of register rename lookups that rename has made
system.cpu0.rename.RenamedInsts            1565064258                       # Number of instructions processed by rename
system.cpu0.rename.RenamedOperands         1017074835                       # Number of destination operands rename has renamed
system.cpu0.rename.RunCycles               1088950419                       # Number of cycles rename is running
system.cpu0.rename.SQFullEvents              33659851                       # Number of times rename has blocked due to SQ full
system.cpu0.rename.SquashCycles               9968899                       # Number of cycles rename is squashing
system.cpu0.rename.UnblockCycles             79735128                       # Number of cycles rename is unblocking
system.cpu0.rename.UndoneMaps               106060225                       # Number of HB maps that are undone due to squashing
system.cpu0.rename.fp_rename_lookups               44                       # Number of floating rename lookups
system.cpu0.rename.int_rename_lookups      1932097799                       # Number of integer rename lookups
system.cpu0.rename.serializeStallCycles        177865                       # count of cycles rename stalled for serializing inst
system.cpu0.rename.serializingInsts              5917                       # count of serializing insts renamed
system.cpu0.rename.skidInsts                 36464502                       # count of insts added to the skid buffer
system.cpu0.rename.tempSerializingInsts          5916                       # count of temporary serializing insts renamed
system.cpu0.rob.rob_reads                  3990094191                       # The number of ROB reads
system.cpu0.rob.rob_writes                 3121130790                       # The number of ROB writes
system.cpu0.timesIdled                       27473602                       # Number of times that the entire CPU went into an idle state and unscheduled itself
system.cpu0.workload.numSyscalls                 1860                       # Number of system calls
system.cpu1.branchPred.BTBCorrect                   0                       # Number of correct BTB predictions (this stat may not work properly.
system.cpu1.branchPred.BTBHitPct            83.824890                       # BTB Hit Percentage
system.cpu1.branchPred.BTBHits               24798825                       # Number of BTB hits
system.cpu1.branchPred.BTBLookups            29584083                       # Number of BTB lookups
system.cpu1.branchPred.RASInCorrect                 0                       # Number of incorrect RAS predictions.
system.cpu1.branchPred.condIncorrect          2846569                       # Number of conditional branches incorrect
system.cpu1.branchPred.condPredicted         33017774                       # Number of conditional branches predicted
system.cpu1.branchPred.indirectHits           2167477                       # Number of indirect target hits.
system.cpu1.branchPred.indirectLookups        2181173                       # Number of indirect predictor lookups.
system.cpu1.branchPred.indirectMisses           13696                       # Number of indirect misses.
system.cpu1.branchPred.lookups               41867361                       # Number of BP lookups
system.cpu1.branchPred.usedRAS                      0                       # Number of times the RAS was used to get a target.
system.cpu1.branchPredindirectMispredicted       148540                       # Number of mispredicted indirect branches.
system.cpu1.commit.amos                       2100008                       # Number of atomic instructions committed
system.cpu1.commit.branchMispredicts          1929157                       # The number of times a branch was mispredicted
system.cpu1.commit.branches                  34318382                       # Number of branches committed
system.cpu1.commit.bw_lim_events              6261823                       # number cycles where commit BW limit reached
system.cpu1.commit.commitNonSpecStalls        6300697                       # The number of times commit has been forced to stall to communicate backwards
system.cpu1.commit.commitSquashedInsts       18043326                       # The number of squashed insts skipped by commit
system.cpu1.commit.committedInsts           158037577                       # Number of instructions committed
system.cpu1.commit.committedOps             160137760                       # Number of ops (including micro ops) committed
system.cpu1.commit.committed_per_cycle::samples    555796862                       # Number of insts commited each cycle
system.cpu1.commit.committed_per_cycle::mean     0.288123                       # Number of insts commited each cycle
system.cpu1.commit.committed_per_cycle::stdev     1.090823                       # Number of insts commited each cycle
system.cpu1.commit.committed_per_cycle::underflows            0      0.00%      0.00% # Number of insts commited each cycle
system.cpu1.commit.committed_per_cycle::0    490959219     88.33%     88.33% # Number of insts commited each cycle
system.cpu1.commit.committed_per_cycle::1     32765259      5.90%     94.23% # Number of insts commited each cycle
system.cpu1.commit.committed_per_cycle::2     12944077      2.33%     96.56% # Number of insts commited each cycle
system.cpu1.commit.committed_per_cycle::3      5950392      1.07%     97.63% # Number of insts commited each cycle
system.cpu1.commit.committed_per_cycle::4      3085896      0.56%     98.18% # Number of insts commited each cycle
system.cpu1.commit.committed_per_cycle::5      2293058      0.41%     98.60% # Number of insts commited each cycle
system.cpu1.commit.committed_per_cycle::6      1030253      0.19%     98.78% # Number of insts commited each cycle
system.cpu1.commit.committed_per_cycle::7       506885      0.09%     98.87% # Number of insts commited each cycle
system.cpu1.commit.committed_per_cycle::8      6261823      1.13%    100.00% # Number of insts commited each cycle
system.cpu1.commit.committed_per_cycle::overflows            0      0.00%    100.00% # Number of insts commited each cycle
system.cpu1.commit.committed_per_cycle::min_value            0                       # Number of insts commited each cycle
system.cpu1.commit.committed_per_cycle::max_value            8                       # Number of insts commited each cycle
system.cpu1.commit.committed_per_cycle::total    555796862                       # Number of insts commited each cycle
system.cpu1.commit.fp_insts                        12                       # Number of committed floating point instructions.
system.cpu1.commit.function_calls             3697233                       # Number of function calls committed.
system.cpu1.commit.int_insts                152830848                       # Number of committed integer instructions.
system.cpu1.commit.loads                     38893902                       # Number of loads committed
system.cpu1.commit.membars                    4200133                       # Number of memory barriers committed
system.cpu1.commit.op_class_0::No_OpClass      4200133      2.62%      2.62% # Class of committed instruction
system.cpu1.commit.op_class_0::IntAlu        98359827     61.42%     64.04% # Class of committed instruction
system.cpu1.commit.op_class_0::IntMult         265371      0.17%     64.21% # Class of committed instruction
system.cpu1.commit.op_class_0::IntDiv          526963      0.33%     64.54% # Class of committed instruction
system.cpu1.commit.op_class_0::FloatAdd             0      0.00%     64.54% # Class of committed instruction
system.cpu1.commit.op_class_0::FloatCmp             0      0.00%     64.54% # Class of committed instruction
system.cpu1.commit.op_class_0::FloatCvt             0      0.00%     64.54% # Class of committed instruction
system.cpu1.commit.op_class_0::FloatMult            0      0.00%     64.54% # Class of committed instruction
system.cpu1.commit.op_class_0::FloatMultAcc            0      0.00%     64.54% # Class of committed instruction
system.cpu1.commit.op_class_0::FloatDiv             0      0.00%     64.54% # Class of committed instruction
system.cpu1.commit.op_class_0::FloatMisc            0      0.00%     64.54% # Class of committed instruction
system.cpu1.commit.op_class_0::FloatSqrt            0      0.00%     64.54% # Class of committed instruction
system.cpu1.commit.op_class_0::SimdAdd              0      0.00%     64.54% # Class of committed instruction
system.cpu1.commit.op_class_0::SimdAddAcc            0      0.00%     64.54% # Class of committed instruction
system.cpu1.commit.op_class_0::SimdAlu              0      0.00%     64.54% # Class of committed instruction
system.cpu1.commit.op_class_0::SimdCmp              0      0.00%     64.54% # Class of committed instruction
system.cpu1.commit.op_class_0::SimdCvt              0      0.00%     64.54% # Class of committed instruction
system.cpu1.commit.op_class_0::SimdMisc             0      0.00%     64.54% # Class of committed instruction
system.cpu1.commit.op_class_0::SimdMult             0      0.00%     64.54% # Class of committed instruction
system.cpu1.commit.op_class_0::SimdMultAcc            0      0.00%     64.54% # Class of committed instruction
system.cpu1.commit.op_class_0::SimdShift            0      0.00%     64.54% # Class of committed instruction
system.cpu1.commit.op_class_0::SimdShiftAcc            0      0.00%     64.54% # Class of committed instruction
system.cpu1.commit.op_class_0::SimdDiv              0      0.00%     64.54% # Class of committed instruction
system.cpu1.commit.op_class_0::SimdSqrt             0      0.00%     64.54% # Class of committed instruction
system.cpu1.commit.op_class_0::SimdFloatAdd            0      0.00%     64.54% # Class of committed instruction
system.cpu1.commit.op_class_0::SimdFloatAlu            0      0.00%     64.54% # Class of committed instruction
system.cpu1.commit.op_class_0::SimdFloatCmp            0      0.00%     64.54% # Class of committed instruction
system.cpu1.commit.op_class_0::SimdFloatCvt            0      0.00%     64.54% # Class of committed instruction
system.cpu1.commit.op_class_0::SimdFloatDiv            0      0.00%     64.54% # Class of committed instruction
system.cpu1.commit.op_class_0::SimdFloatMisc            0      0.00%     64.54% # Class of committed instruction
system.cpu1.commit.op_class_0::SimdFloatMult            0      0.00%     64.54% # Class of committed instruction
system.cpu1.commit.op_class_0::SimdFloatMultAcc            0      0.00%     64.54% # Class of committed instruction
system.cpu1.commit.op_class_0::SimdFloatSqrt            0      0.00%     64.54% # Class of committed instruction
system.cpu1.commit.op_class_0::SimdReduceAdd            0      0.00%     64.54% # Class of committed instruction
system.cpu1.commit.op_class_0::SimdReduceAlu            0      0.00%     64.54% # Class of committed instruction
system.cpu1.commit.op_class_0::SimdReduceCmp            0      0.00%     64.54% # Class of committed instruction
system.cpu1.commit.op_class_0::SimdFloatReduceAdd            0      0.00%     64.54% # Class of committed instruction
system.cpu1.commit.op_class_0::SimdFloatReduceCmp            0      0.00%     64.54% # Class of committed instruction
system.cpu1.commit.op_class_0::SimdAes              0      0.00%     64.54% # Class of committed instruction
system.cpu1.commit.op_class_0::SimdAesMix            0      0.00%     64.54% # Class of committed instruction
system.cpu1.commit.op_class_0::SimdSha1Hash            0      0.00%     64.54% # Class of committed instruction
system.cpu1.commit.op_class_0::SimdSha1Hash2            0      0.00%     64.54% # Class of committed instruction
system.cpu1.commit.op_class_0::SimdSha256Hash            0      0.00%     64.54% # Class of committed instruction
system.cpu1.commit.op_class_0::SimdSha256Hash2            0      0.00%     64.54% # Class of committed instruction
system.cpu1.commit.op_class_0::SimdShaSigma2            0      0.00%     64.54% # Class of committed instruction
system.cpu1.commit.op_class_0::SimdShaSigma3            0      0.00%     64.54% # Class of committed instruction
system.cpu1.commit.op_class_0::SimdPredAlu            0      0.00%     64.54% # Class of committed instruction
system.cpu1.commit.op_class_0::MemRead       40993910     25.60%     90.14% # Class of committed instruction
system.cpu1.commit.op_class_0::MemWrite      15791544      9.86%    100.00% # Class of committed instruction
system.cpu1.commit.op_class_0::FloatMemRead            0      0.00%    100.00% # Class of committed instruction
system.cpu1.commit.op_class_0::FloatMemWrite           12      0.00%    100.00% # Class of committed instruction
system.cpu1.commit.op_class_0::IprAccess            0      0.00%    100.00% # Class of committed instruction
system.cpu1.commit.op_class_0::InstPrefetch            0      0.00%    100.00% # Class of committed instruction
system.cpu1.commit.op_class_0::total        160137760                       # Class of committed instruction
system.cpu1.commit.refs                      56785466                       # Number of memory references committed
system.cpu1.commit.swp_count                        0                       # Number of s/w prefetches committed
system.cpu1.commit.vec_insts                        0                       # Number of committed Vector instructions.
system.cpu1.committedInsts                  158037577                       # Number of Instructions Simulated
system.cpu1.committedOps                    160137760                       # Number of Ops (including micro ops) Simulated
system.cpu1.cpi                              3.577257                       # CPI: Cycles Per Instruction
system.cpu1.cpi_total                        3.577257                       # CPI: Total CPI of All Threads
system.cpu1.decode.BlockedCycles            416789675                       # Number of cycles decode is blocked
system.cpu1.decode.BranchMispred               934014                       # Number of times decode detected a branch misprediction
system.cpu1.decode.BranchResolved            23369900                       # Number of times decode resolved a branch
system.cpu1.decode.DecodedInsts             185426798                       # Number of instructions handled by decode
system.cpu1.decode.IdleCycles                42424575                       # Number of cycles decode is idle
system.cpu1.decode.RunCycles                 92799741                       # Number of cycles decode is running
system.cpu1.decode.SquashCycles               1930447                       # Number of cycles decode is squashing
system.cpu1.decode.SquashedInsts              2308959                       # Number of squashed instructions handled by decode
system.cpu1.decode.UnblockCycles              5555036                       # Number of cycles decode is unblocking
system.cpu1.dtb.accesses                            0                       # DTB accesses
system.cpu1.dtb.hits                                0                       # DTB hits
system.cpu1.dtb.misses                              0                       # DTB misses
system.cpu1.dtb.read_accesses                       0                       # DTB read accesses
system.cpu1.dtb.read_hits                           0                       # DTB read hits
system.cpu1.dtb.read_misses                         0                       # DTB read misses
system.cpu1.dtb.write_accesses                      0                       # DTB write accesses
system.cpu1.dtb.write_hits                          0                       # DTB write hits
system.cpu1.dtb.write_misses                        0                       # DTB write misses
system.cpu1.fetch.Branches                   41867361                       # Number of branches that fetch encountered
system.cpu1.fetch.CacheLines                 33123787                       # Number of cache lines fetched
system.cpu1.fetch.Cycles                    511850237                       # Number of cycles fetch has run and was not squashing or blocked
system.cpu1.fetch.IcacheSquashes               779699                       # Number of outstanding Icache misses that were squashed
system.cpu1.fetch.Insts                     192005492                       # Number of instructions fetch has processed
system.cpu1.fetch.MiscStallCycles                   6                       # Number of cycles fetch has spent waiting on interrupts, or bad addresses, or out of MSHRs
system.cpu1.fetch.PendingTrapStallCycles           30                       # Number of stall cycles due to pending traps
system.cpu1.fetch.SquashCycles                5695726                       # Number of cycles fetch has spent squashing
system.cpu1.fetch.branchRate                 0.074057                       # Number of branch fetches per cycle
system.cpu1.fetch.icacheStallCycles          44801338                       # Number of cycles fetch is stalled on an Icache miss
system.cpu1.fetch.predictedBranches          26966302                       # Number of branches that fetch has predicted taken
system.cpu1.fetch.rate                       0.339628                       # Number of inst fetches per cycle
system.cpu1.fetch.rateDist::samples         559499474                       # Number of instructions fetched each cycle (Total)
system.cpu1.fetch.rateDist::mean             0.346928                       # Number of instructions fetched each cycle (Total)
system.cpu1.fetch.rateDist::stdev            0.771055                       # Number of instructions fetched each cycle (Total)
system.cpu1.fetch.rateDist::underflows              0      0.00%      0.00% # Number of instructions fetched each cycle (Total)
system.cpu1.fetch.rateDist::0               431258415     77.08%     77.08% # Number of instructions fetched each cycle (Total)
system.cpu1.fetch.rateDist::1                86541629     15.47%     92.55% # Number of instructions fetched each cycle (Total)
system.cpu1.fetch.rateDist::2                26204972      4.68%     97.23% # Number of instructions fetched each cycle (Total)
system.cpu1.fetch.rateDist::3                10361047      1.85%     99.08% # Number of instructions fetched each cycle (Total)
system.cpu1.fetch.rateDist::4                 2291623      0.41%     99.49% # Number of instructions fetched each cycle (Total)
system.cpu1.fetch.rateDist::5                 2146625      0.38%     99.88% # Number of instructions fetched each cycle (Total)
system.cpu1.fetch.rateDist::6                  694707      0.12%    100.00% # Number of instructions fetched each cycle (Total)
system.cpu1.fetch.rateDist::7                     211      0.00%    100.00% # Number of instructions fetched each cycle (Total)
system.cpu1.fetch.rateDist::8                     245      0.00%    100.00% # Number of instructions fetched each cycle (Total)
system.cpu1.fetch.rateDist::overflows               0      0.00%    100.00% # Number of instructions fetched each cycle (Total)
system.cpu1.fetch.rateDist::min_value               0                       # Number of instructions fetched each cycle (Total)
system.cpu1.fetch.rateDist::max_value               8                       # Number of instructions fetched each cycle (Total)
system.cpu1.fetch.rateDist::total           559499474                       # Number of instructions fetched each cycle (Total)
system.cpu1.fp_regfile_reads                       12                       # number of floating regfile reads
system.cpu1.idleCycles                        5841632                       # Total number of cycles that the CPU has spent unscheduled due to idling
system.cpu1.iew.branchMispredicts             2003199                       # Number of branch mispredicts detected at execute
system.cpu1.iew.exec_branches                37095340                       # Number of branches executed
system.cpu1.iew.exec_nop                            0                       # number of nop insts executed
system.cpu1.iew.exec_rate                    0.305878                       # Inst execution rate
system.cpu1.iew.exec_refs                    61439358                       # number of memory reference insts executed
system.cpu1.iew.exec_stores                  18548545                       # Number of stores executed
system.cpu1.iew.exec_swp                            0                       # number of swp insts executed
system.cpu1.iew.iewBlockCycles              340481045                       # Number of cycles IEW is blocking
system.cpu1.iew.iewDispLoadInsts             43698158                       # Number of dispatched load instructions
system.cpu1.iew.iewDispNonSpecInsts           2100697                       # Number of dispatched non-speculative instructions
system.cpu1.iew.iewDispSquashedInsts          1766217                       # Number of squashed instructions skipped by dispatch
system.cpu1.iew.iewDispStoreInsts            19094408                       # Number of dispatched store instructions
system.cpu1.iew.iewDispatchedInsts          178136304                       # Number of instructions dispatched to IQ
system.cpu1.iew.iewExecLoadInsts             42890813                       # Number of load instructions executed
system.cpu1.iew.iewExecSquashedInsts          1630205                       # Number of squashed instructions skipped in execute
system.cpu1.iew.iewExecutedInsts            172925675                       # Number of executed instructions
system.cpu1.iew.iewIQFullEvents               1130924                       # Number of times the IQ has become full, causing a stall
system.cpu1.iew.iewIdleCycles                       0                       # Number of cycles IEW is idle
system.cpu1.iew.iewLSQFullEvents              9416794                       # Number of times the LSQ has become full, causing a stall
system.cpu1.iew.iewSquashCycles               1930447                       # Number of cycles IEW is squashing
system.cpu1.iew.iewUnblockCycles             13371618                       # Number of cycles IEW is unblocking
system.cpu1.iew.lsq.thread0.blockedLoads            0                       # Number of blocked loads due to partial load-store forwarding
system.cpu1.iew.lsq.thread0.cacheBlocked       101255                       # Number of times an access to memory failed due to the cache being blocked
system.cpu1.iew.lsq.thread0.forwLoads         1480775                       # Number of loads that had data forwarded from stores
system.cpu1.iew.lsq.thread0.ignoredResponses        28754                       # Number of memory responses ignored because the instruction is squashed
system.cpu1.iew.lsq.thread0.invAddrLoads            0                       # Number of loads ignored due to an invalid address
system.cpu1.iew.lsq.thread0.invAddrSwpfs            0                       # Number of software prefetches ignored due to an invalid address
system.cpu1.iew.lsq.thread0.memOrderViolation         1744                       # Number of memory ordering violations
system.cpu1.iew.lsq.thread0.rescheduledLoads         3861                       # Number of loads that were rescheduled
system.cpu1.iew.lsq.thread0.squashedLoads      4804256                       # Number of loads squashed
system.cpu1.iew.lsq.thread0.squashedStores      1202844                       # Number of stores squashed
system.cpu1.iew.memOrderViolationEvents          1744                       # Number of memory order violations
system.cpu1.iew.predictedNotTakenIncorrect       408907                       # Number of branches that were predicted not taken incorrectly
system.cpu1.iew.predictedTakenIncorrect       1594292                       # Number of branches that were predicted taken incorrectly
system.cpu1.iew.wb_consumers                 93978650                       # num instructions consuming a value
system.cpu1.iew.wb_count                    171617438                       # cumulative count of insts written-back
system.cpu1.iew.wb_fanout                    0.822019                       # average fanout of values written-back
system.cpu1.iew.wb_producers                 77252243                       # num instructions producing a value
system.cpu1.iew.wb_rate                      0.303564                       # insts written-back per cycle
system.cpu1.iew.wb_sent                     171690635                       # cumulative count of insts sent to commit
system.cpu1.int_regfile_reads               218414269                       # number of integer regfile reads
system.cpu1.int_regfile_writes              115846178                       # number of integer regfile writes
system.cpu1.ipc                              0.279544                       # IPC: Instructions Per Cycle
system.cpu1.ipc_total                        0.279544                       # IPC: Total IPC of All Threads
system.cpu1.iq.FU_type_0::No_OpClass          4200238      2.41%      2.41% # Type of FU issued
system.cpu1.iq.FU_type_0::IntAlu            107366817     61.51%     63.91% # Type of FU issued
system.cpu1.iq.FU_type_0::IntMult              265415      0.15%     64.07% # Type of FU issued
system.cpu1.iq.FU_type_0::IntDiv               527078      0.30%     64.37% # Type of FU issued
system.cpu1.iq.FU_type_0::FloatAdd                  0      0.00%     64.37% # Type of FU issued
system.cpu1.iq.FU_type_0::FloatCmp                  0      0.00%     64.37% # Type of FU issued
system.cpu1.iq.FU_type_0::FloatCvt                  0      0.00%     64.37% # Type of FU issued
system.cpu1.iq.FU_type_0::FloatMult                 0      0.00%     64.37% # Type of FU issued
system.cpu1.iq.FU_type_0::FloatMultAcc              0      0.00%     64.37% # Type of FU issued
system.cpu1.iq.FU_type_0::FloatDiv                  0      0.00%     64.37% # Type of FU issued
system.cpu1.iq.FU_type_0::FloatMisc                 0      0.00%     64.37% # Type of FU issued
system.cpu1.iq.FU_type_0::FloatSqrt                 0      0.00%     64.37% # Type of FU issued
system.cpu1.iq.FU_type_0::SimdAdd                   0      0.00%     64.37% # Type of FU issued
system.cpu1.iq.FU_type_0::SimdAddAcc                0      0.00%     64.37% # Type of FU issued
system.cpu1.iq.FU_type_0::SimdAlu                   0      0.00%     64.37% # Type of FU issued
system.cpu1.iq.FU_type_0::SimdCmp                   0      0.00%     64.37% # Type of FU issued
system.cpu1.iq.FU_type_0::SimdCvt                   0      0.00%     64.37% # Type of FU issued
system.cpu1.iq.FU_type_0::SimdMisc                  0      0.00%     64.37% # Type of FU issued
system.cpu1.iq.FU_type_0::SimdMult                  0      0.00%     64.37% # Type of FU issued
system.cpu1.iq.FU_type_0::SimdMultAcc               0      0.00%     64.37% # Type of FU issued
system.cpu1.iq.FU_type_0::SimdShift                 0      0.00%     64.37% # Type of FU issued
system.cpu1.iq.FU_type_0::SimdShiftAcc              0      0.00%     64.37% # Type of FU issued
system.cpu1.iq.FU_type_0::SimdDiv                   0      0.00%     64.37% # Type of FU issued
system.cpu1.iq.FU_type_0::SimdSqrt                  0      0.00%     64.37% # Type of FU issued
system.cpu1.iq.FU_type_0::SimdFloatAdd              0      0.00%     64.37% # Type of FU issued
system.cpu1.iq.FU_type_0::SimdFloatAlu              0      0.00%     64.37% # Type of FU issued
system.cpu1.iq.FU_type_0::SimdFloatCmp              0      0.00%     64.37% # Type of FU issued
system.cpu1.iq.FU_type_0::SimdFloatCvt              0      0.00%     64.37% # Type of FU issued
system.cpu1.iq.FU_type_0::SimdFloatDiv              0      0.00%     64.37% # Type of FU issued
system.cpu1.iq.FU_type_0::SimdFloatMisc             0      0.00%     64.37% # Type of FU issued
system.cpu1.iq.FU_type_0::SimdFloatMult             0      0.00%     64.37% # Type of FU issued
system.cpu1.iq.FU_type_0::SimdFloatMultAcc            0      0.00%     64.37% # Type of FU issued
system.cpu1.iq.FU_type_0::SimdFloatSqrt             0      0.00%     64.37% # Type of FU issued
system.cpu1.iq.FU_type_0::SimdReduceAdd             0      0.00%     64.37% # Type of FU issued
system.cpu1.iq.FU_type_0::SimdReduceAlu             0      0.00%     64.37% # Type of FU issued
system.cpu1.iq.FU_type_0::SimdReduceCmp             0      0.00%     64.37% # Type of FU issued
system.cpu1.iq.FU_type_0::SimdFloatReduceAdd            0      0.00%     64.37% # Type of FU issued
system.cpu1.iq.FU_type_0::SimdFloatReduceCmp            0      0.00%     64.37% # Type of FU issued
system.cpu1.iq.FU_type_0::SimdAes                   0      0.00%     64.37% # Type of FU issued
system.cpu1.iq.FU_type_0::SimdAesMix                0      0.00%     64.37% # Type of FU issued
system.cpu1.iq.FU_type_0::SimdSha1Hash              0      0.00%     64.37% # Type of FU issued
system.cpu1.iq.FU_type_0::SimdSha1Hash2             0      0.00%     64.37% # Type of FU issued
system.cpu1.iq.FU_type_0::SimdSha256Hash            0      0.00%     64.37% # Type of FU issued
system.cpu1.iq.FU_type_0::SimdSha256Hash2            0      0.00%     64.37% # Type of FU issued
system.cpu1.iq.FU_type_0::SimdShaSigma2             0      0.00%     64.37% # Type of FU issued
system.cpu1.iq.FU_type_0::SimdShaSigma3             0      0.00%     64.37% # Type of FU issued
system.cpu1.iq.FU_type_0::SimdPredAlu               0      0.00%     64.37% # Type of FU issued
system.cpu1.iq.FU_type_0::MemRead            45660861     26.16%     90.53% # Type of FU issued
system.cpu1.iq.FU_type_0::MemWrite           16535459      9.47%    100.00% # Type of FU issued
system.cpu1.iq.FU_type_0::FloatMemRead              0      0.00%    100.00% # Type of FU issued
system.cpu1.iq.FU_type_0::FloatMemWrite            12      0.00%    100.00% # Type of FU issued
system.cpu1.iq.FU_type_0::IprAccess                 0      0.00%    100.00% # Type of FU issued
system.cpu1.iq.FU_type_0::InstPrefetch              0      0.00%    100.00% # Type of FU issued
system.cpu1.iq.FU_type_0::total             174555880                       # Type of FU issued
system.cpu1.iq.fp_alu_accesses                     16                       # Number of floating point alu accesses
system.cpu1.iq.fp_inst_queue_reads                 28                       # Number of floating instruction queue reads
system.cpu1.iq.fp_inst_queue_wakeup_accesses           12                       # Number of floating instruction queue wakeup accesses
system.cpu1.iq.fp_inst_queue_writes                12                       # Number of floating instruction queue writes
system.cpu1.iq.fu_busy_cnt                    4144866                       # FU busy when requested
system.cpu1.iq.fu_busy_rate                  0.023745                       # FU busy rate (busy events/executed inst)
system.cpu1.iq.fu_full::No_OpClass                  0      0.00%      0.00% # attempts to use FU when none available
system.cpu1.iq.fu_full::IntAlu                 686371     16.56%     16.56% # attempts to use FU when none available
system.cpu1.iq.fu_full::IntMult                  3079      0.07%     16.63% # attempts to use FU when none available
system.cpu1.iq.fu_full::IntDiv                 421359     10.17%     26.80% # attempts to use FU when none available
system.cpu1.iq.fu_full::FloatAdd                    0      0.00%     26.80% # attempts to use FU when none available
system.cpu1.iq.fu_full::FloatCmp                    0      0.00%     26.80% # attempts to use FU when none available
system.cpu1.iq.fu_full::FloatCvt                    0      0.00%     26.80% # attempts to use FU when none available
system.cpu1.iq.fu_full::FloatMult                   0      0.00%     26.80% # attempts to use FU when none available
system.cpu1.iq.fu_full::FloatMultAcc                0      0.00%     26.80% # attempts to use FU when none available
system.cpu1.iq.fu_full::FloatDiv                    0      0.00%     26.80% # attempts to use FU when none available
system.cpu1.iq.fu_full::FloatMisc                   0      0.00%     26.80% # attempts to use FU when none available
system.cpu1.iq.fu_full::FloatSqrt                   0      0.00%     26.80% # attempts to use FU when none available
system.cpu1.iq.fu_full::SimdAdd                     0      0.00%     26.80% # attempts to use FU when none available
system.cpu1.iq.fu_full::SimdAddAcc                  0      0.00%     26.80% # attempts to use FU when none available
system.cpu1.iq.fu_full::SimdAlu                     0      0.00%     26.80% # attempts to use FU when none available
system.cpu1.iq.fu_full::SimdCmp                     0      0.00%     26.80% # attempts to use FU when none available
system.cpu1.iq.fu_full::SimdCvt                     0      0.00%     26.80% # attempts to use FU when none available
system.cpu1.iq.fu_full::SimdMisc                    0      0.00%     26.80% # attempts to use FU when none available
system.cpu1.iq.fu_full::SimdMult                    0      0.00%     26.80% # attempts to use FU when none available
system.cpu1.iq.fu_full::SimdMultAcc                 0      0.00%     26.80% # attempts to use FU when none available
system.cpu1.iq.fu_full::SimdShift                   0      0.00%     26.80% # attempts to use FU when none available
system.cpu1.iq.fu_full::SimdShiftAcc                0      0.00%     26.80% # attempts to use FU when none available
system.cpu1.iq.fu_full::SimdDiv                     0      0.00%     26.80% # attempts to use FU when none available
system.cpu1.iq.fu_full::SimdSqrt                    0      0.00%     26.80% # attempts to use FU when none available
system.cpu1.iq.fu_full::SimdFloatAdd                0      0.00%     26.80% # attempts to use FU when none available
system.cpu1.iq.fu_full::SimdFloatAlu                0      0.00%     26.80% # attempts to use FU when none available
system.cpu1.iq.fu_full::SimdFloatCmp                0      0.00%     26.80% # attempts to use FU when none available
system.cpu1.iq.fu_full::SimdFloatCvt                0      0.00%     26.80% # attempts to use FU when none available
system.cpu1.iq.fu_full::SimdFloatDiv                0      0.00%     26.80% # attempts to use FU when none available
system.cpu1.iq.fu_full::SimdFloatMisc               0      0.00%     26.80% # attempts to use FU when none available
system.cpu1.iq.fu_full::SimdFloatMult               0      0.00%     26.80% # attempts to use FU when none available
system.cpu1.iq.fu_full::SimdFloatMultAcc            0      0.00%     26.80% # attempts to use FU when none available
system.cpu1.iq.fu_full::SimdFloatSqrt               0      0.00%     26.80% # attempts to use FU when none available
system.cpu1.iq.fu_full::SimdReduceAdd               0      0.00%     26.80% # attempts to use FU when none available
system.cpu1.iq.fu_full::SimdReduceAlu               0      0.00%     26.80% # attempts to use FU when none available
system.cpu1.iq.fu_full::SimdReduceCmp               0      0.00%     26.80% # attempts to use FU when none available
system.cpu1.iq.fu_full::SimdFloatReduceAdd            0      0.00%     26.80% # attempts to use FU when none available
system.cpu1.iq.fu_full::SimdFloatReduceCmp            0      0.00%     26.80% # attempts to use FU when none available
system.cpu1.iq.fu_full::SimdAes                     0      0.00%     26.80% # attempts to use FU when none available
system.cpu1.iq.fu_full::SimdAesMix                  0      0.00%     26.80% # attempts to use FU when none available
system.cpu1.iq.fu_full::SimdSha1Hash                0      0.00%     26.80% # attempts to use FU when none available
system.cpu1.iq.fu_full::SimdSha1Hash2               0      0.00%     26.80% # attempts to use FU when none available
system.cpu1.iq.fu_full::SimdSha256Hash              0      0.00%     26.80% # attempts to use FU when none available
system.cpu1.iq.fu_full::SimdSha256Hash2             0      0.00%     26.80% # attempts to use FU when none available
system.cpu1.iq.fu_full::SimdShaSigma2               0      0.00%     26.80% # attempts to use FU when none available
system.cpu1.iq.fu_full::SimdShaSigma3               0      0.00%     26.80% # attempts to use FU when none available
system.cpu1.iq.fu_full::SimdPredAlu                 0      0.00%     26.80% # attempts to use FU when none available
system.cpu1.iq.fu_full::MemRead               2465008     59.47%     86.27% # attempts to use FU when none available
[...]
system.cpu1.dcache.WriteReq_misses::.cpu1.data      2462604                       # number of WriteReq misses
system.cpu1.dcache.WriteReq_misses::total      2462604                       # number of WriteReq misses
system.cpu1.dcache.WriteReq_miss_latency::.cpu1.data 173301514048                       # number of WriteReq miss cycles
system.cpu1.dcache.WriteReq_miss_latency::total 173301514048                       # number of WriteReq miss cycles
system.cpu1.dcache.WriteReq_accesses::.cpu1.data      5865190                       # number of WriteReq accesses(hits+misses)
system.cpu1.dcache.WriteReq_accesses::total      5865190                       # number of WriteReq accesses(hits+misses)
system.cpu1.dcache.WriteReq_miss_rate::.cpu1.data     0.419868                       # miss rate for WriteReq accesses
system.cpu1.dcache.WriteReq_miss_rate::total     0.419868                       # miss rate for WriteReq accesses
system.cpu1.dcache.WriteReq_avg_miss_latency::.cpu1.data 70373.277250                       # average WriteReq miss latency
system.cpu1.dcache.WriteReq_avg_miss_latency::total 70373.277250                       # average WriteReq miss latency
system.cpu1.dcache.WriteReq_mshr_hits::.cpu1.data      2024385                       # number of WriteReq MSHR hits
system.cpu1.dcache.WriteReq_mshr_hits::total      2024385                       # number of WriteReq MSHR hits
system.cpu1.dcache.WriteReq_mshr_misses::.cpu1.data       438219                       # number of WriteReq MSHR misses
system.cpu1.dcache.WriteReq_mshr_misses::total       438219                       # number of WriteReq MSHR misses
system.cpu1.dcache.WriteReq_mshr_miss_latency::.cpu1.data  32395192448                       # number of WriteReq MSHR miss cycles
system.cpu1.dcache.WriteReq_mshr_miss_latency::total  32395192448                       # number of WriteReq MSHR miss cycles
system.cpu1.dcache.WriteReq_mshr_miss_rate::.cpu1.data     0.074715                       # mshr miss rate for WriteReq accesses
system.cpu1.dcache.WriteReq_mshr_miss_rate::total     0.074715                       # mshr miss rate for WriteReq accesses
system.cpu1.dcache.WriteReq_avg_mshr_miss_latency::.cpu1.data 73924.664261                       # average WriteReq mshr miss latency
system.cpu1.dcache.WriteReq_avg_mshr_miss_latency::total 73924.664261                       # average WriteReq mshr miss latency
system.cpu1.dcache.LoadLockedReq_hits::.cpu1.data        76911                       # number of LoadLockedReq hits
system.cpu1.dcache.LoadLockedReq_hits::total        76911                       # number of LoadLockedReq hits
system.cpu1.dcache.LoadLockedReq_misses::.cpu1.data        25401                       # number of LoadLockedReq misses
system.cpu1.dcache.LoadLockedReq_misses::total        25401                       # number of LoadLockedReq misses
system.cpu1.dcache.LoadLockedReq_miss_latency::.cpu1.data    770531500                       # number of LoadLockedReq miss cycles
system.cpu1.dcache.LoadLockedReq_miss_latency::total    770531500                       # number of LoadLockedReq miss cycles
system.cpu1.dcache.LoadLockedReq_accesses::.cpu1.data       102312                       # number of LoadLockedReq accesses(hits+misses)
system.cpu1.dcache.LoadLockedReq_accesses::total       102312                       # number of LoadLockedReq accesses(hits+misses)
system.cpu1.dcache.LoadLockedReq_miss_rate::.cpu1.data     0.248270                       # miss rate for LoadLockedReq accesses
system.cpu1.dcache.LoadLockedReq_miss_rate::total     0.248270                       # miss rate for LoadLockedReq accesses
system.cpu1.dcache.LoadLockedReq_avg_miss_latency::.cpu1.data 30334.691548                       # average LoadLockedReq miss latency
system.cpu1.dcache.LoadLockedReq_avg_miss_latency::total 30334.691548                       # average LoadLockedReq miss latency
system.cpu1.dcache.LoadLockedReq_mshr_hits::.cpu1.data        22805                       # number of LoadLockedReq MSHR hits
system.cpu1.dcache.LoadLockedReq_mshr_hits::total        22805                       # number of LoadLockedReq MSHR hits
system.cpu1.dcache.LoadLockedReq_mshr_misses::.cpu1.data         2596                       # number of LoadLockedReq MSHR misses
system.cpu1.dcache.LoadLockedReq_mshr_misses::total         2596                       # number of LoadLockedReq MSHR misses
system.cpu1.dcache.LoadLockedReq_mshr_miss_latency::.cpu1.data     35311000                       # number of LoadLockedReq MSHR miss cycles
system.cpu1.dcache.LoadLockedReq_mshr_miss_latency::total     35311000                       # number of LoadLockedReq MSHR miss cycles
system.cpu1.dcache.LoadLockedReq_mshr_miss_rate::.cpu1.data     0.025373                       # mshr miss rate for LoadLockedReq accesses
system.cpu1.dcache.LoadLockedReq_mshr_miss_rate::total     0.025373                       # mshr miss rate for LoadLockedReq accesses
system.cpu1.dcache.LoadLockedReq_avg_mshr_miss_latency::.cpu1.data 13602.080123                       # average LoadLockedReq mshr miss latency
system.cpu1.dcache.LoadLockedReq_avg_mshr_miss_latency::total 13602.080123                       # average LoadLockedReq mshr miss latency
system.cpu1.dcache.StoreCondReq_hits::.cpu1.data        52709                       # number of StoreCondReq hits
system.cpu1.dcache.StoreCondReq_hits::total        52709                       # number of StoreCondReq hits
system.cpu1.dcache.StoreCondReq_misses::.cpu1.data        29371                       # number of StoreCondReq misses
system.cpu1.dcache.StoreCondReq_misses::total        29371                       # number of StoreCondReq misses
system.cpu1.dcache.StoreCondReq_miss_latency::.cpu1.data    336549000                       # number of StoreCondReq miss cycles
system.cpu1.dcache.StoreCondReq_miss_latency::total    336549000                       # number of StoreCondReq miss cycles
system.cpu1.dcache.StoreCondReq_accesses::.cpu1.data        82080                       # number of StoreCondReq accesses(hits+misses)
system.cpu1.dcache.StoreCondReq_accesses::total        82080                       # number of StoreCondReq accesses(hits+misses)
system.cpu1.dcache.StoreCondReq_miss_rate::.cpu1.data     0.357834                       # miss rate for StoreCondReq accesses
system.cpu1.dcache.StoreCondReq_miss_rate::total     0.357834                       # miss rate for StoreCondReq accesses
system.cpu1.dcache.StoreCondReq_avg_miss_latency::.cpu1.data 11458.547547                       # average StoreCondReq miss latency
system.cpu1.dcache.StoreCondReq_avg_miss_latency::total 11458.547547                       # average StoreCondReq miss latency
system.cpu1.dcache.StoreCondReq_mshr_misses::.cpu1.data        29370                       # number of StoreCondReq MSHR misses
system.cpu1.dcache.StoreCondReq_mshr_misses::total        29370                       # number of StoreCondReq MSHR misses
system.cpu1.dcache.StoreCondReq_mshr_miss_latency::.cpu1.data    307244000                       # number of StoreCondReq MSHR miss cycles
system.cpu1.dcache.StoreCondReq_mshr_miss_latency::total    307244000                       # number of StoreCondReq MSHR miss cycles
system.cpu1.dcache.StoreCondReq_mshr_miss_rate::.cpu1.data     0.357822                       # mshr miss rate for StoreCondReq accesses
system.cpu1.dcache.StoreCondReq_mshr_miss_rate::total     0.357822                       # mshr miss rate for StoreCondReq accesses
system.cpu1.dcache.StoreCondReq_avg_mshr_miss_latency::.cpu1.data 10461.150834                       # average StoreCondReq mshr miss latency
system.cpu1.dcache.StoreCondReq_avg_mshr_miss_latency::total 10461.150834                       # average StoreCondReq mshr miss latency
system.cpu1.dcache.StoreCondFailReq_miss_latency::.cpu1.data       399500                       # number of StoreCondFailReq miss cycles
system.cpu1.dcache.StoreCondFailReq_miss_latency::total       399500                       # number of StoreCondFailReq miss cycles
system.cpu1.dcache.StoreCondFailReq_avg_miss_latency::.cpu1.data          inf                       # average StoreCondFailReq miss latency
system.cpu1.dcache.StoreCondFailReq_avg_miss_latency::total          inf                       # average StoreCondFailReq miss latency
system.cpu1.dcache.StoreCondFailReq_mshr_miss_latency::.cpu1.data       334500                       # number of StoreCondFailReq MSHR miss cycles
system.cpu1.dcache.StoreCondFailReq_mshr_miss_latency::total       334500                       # number of StoreCondFailReq MSHR miss cycles
system.cpu1.dcache.StoreCondFailReq_avg_mshr_miss_latency::.cpu1.data          inf                       # average StoreCondFailReq mshr miss latency
system.cpu1.dcache.StoreCondFailReq_avg_mshr_miss_latency::total          inf                       # average StoreCondFailReq mshr miss latency
system.cpu1.dcache.SwapReq_hits::.cpu1.data        44390                       # number of SwapReq hits
system.cpu1.dcache.SwapReq_hits::total          44390                       # number of SwapReq hits
system.cpu1.dcache.SwapReq_misses::.cpu1.data        26964                       # number of SwapReq misses
system.cpu1.dcache.SwapReq_misses::total        26964                       # number of SwapReq misses
system.cpu1.dcache.SwapReq_miss_latency::.cpu1.data    130258500                       # number of SwapReq miss cycles
system.cpu1.dcache.SwapReq_miss_latency::total    130258500                       # number of SwapReq miss cycles
system.cpu1.dcache.SwapReq_accesses::.cpu1.data        71354                       # number of SwapReq accesses(hits+misses)
system.cpu1.dcache.SwapReq_accesses::total        71354                       # number of SwapReq accesses(hits+misses)
system.cpu1.dcache.SwapReq_miss_rate::.cpu1.data     0.377891                       # miss rate for SwapReq accesses
system.cpu1.dcache.SwapReq_miss_rate::total     0.377891                       # miss rate for SwapReq accesses
system.cpu1.dcache.SwapReq_avg_miss_latency::.cpu1.data  4830.829996                       # average SwapReq miss latency
system.cpu1.dcache.SwapReq_avg_miss_latency::total  4830.829996                       # average SwapReq miss latency
system.cpu1.dcache.SwapReq_mshr_hits::.cpu1.data           37                       # number of SwapReq MSHR hits
system.cpu1.dcache.SwapReq_mshr_hits::total           37                       # number of SwapReq MSHR hits
system.cpu1.dcache.SwapReq_mshr_misses::.cpu1.data        26927                       # number of SwapReq MSHR misses
system.cpu1.dcache.SwapReq_mshr_misses::total        26927                       # number of SwapReq MSHR misses
system.cpu1.dcache.SwapReq_mshr_miss_latency::.cpu1.data    102693500                       # number of SwapReq MSHR miss cycles
system.cpu1.dcache.SwapReq_mshr_miss_latency::total    102693500                       # number of SwapReq MSHR miss cycles
system.cpu1.dcache.SwapReq_mshr_miss_rate::.cpu1.data     0.377372                       # mshr miss rate for SwapReq accesses
system.cpu1.dcache.SwapReq_mshr_miss_rate::total     0.377372                       # mshr miss rate for SwapReq accesses
system.cpu1.dcache.SwapReq_avg_mshr_miss_latency::.cpu1.data  3813.774279                       # average SwapReq mshr miss latency
system.cpu1.dcache.SwapReq_avg_mshr_miss_latency::total  3813.774279                       # average SwapReq mshr miss latency
system.cpu1.dcache.tags.pwrStateResidencyTicks::UNDEFINED 207332225500                       # Cumulative time (in ticks) in various power states
system.cpu1.dcache.tags.tagsinuse           31.466859                       # Cycle average of tags in use
system.cpu1.dcache.tags.total_refs            9870998                       # Total number of references to valid blocks.
system.cpu1.dcache.tags.sampled_refs          1066921                       # Sample count of references to valid blocks.
system.cpu1.dcache.tags.avg_refs             9.251855                       # Average number of references to valid blocks.
system.cpu1.dcache.tags.warmup_cycle                0                       # Cycle when the warmup percentage was hit.
system.cpu1.dcache.tags.occ_blocks::.cpu1.data    31.466859                       # Average occupied blocks per requestor
system.cpu1.dcache.tags.occ_percent::.cpu1.data     0.983339                       # Average percentage of cache occupancy
system.cpu1.dcache.tags.occ_percent::total     0.983339                       # Average percentage of cache occupancy
system.cpu1.dcache.tags.occ_task_id_blocks::1024           31                       # Occupied blocks per task id
system.cpu1.dcache.tags.age_task_id_blocks_1024::1           31                       # Occupied blocks per task id
system.cpu1.dcache.tags.occ_task_id_percent::1024     0.968750                       # Percentage of cache occupancy per task id
system.cpu1.dcache.tags.tag_accesses         26070412                       # Number of tag accesses
system.cpu1.dcache.tags.data_accesses        26070412                       # Number of data accesses
system.cpu_clk_domain.clock                       500                       # Clock period in ticks
system.tol2bus.pwrStateResidencyTicks::UNDEFINED 207332225500                       # Cumulative time (in ticks) in various power states
system.tol2bus.trans_dist::ReadResp           5089800                       # Transaction distribution
system.tol2bus.trans_dist::WritebackDirty      2338147                       # Transaction distribution
system.tol2bus.trans_dist::WritebackClean      4507355                       # Transaction distribution
system.tol2bus.trans_dist::CleanEvict        11514090                       # Transaction distribution
system.tol2bus.trans_dist::HardPFReq          9416090                       # Transaction distribution
system.tol2bus.trans_dist::HardPFResp              22                       # Transaction distribution
system.tol2bus.trans_dist::UpgradeReq           99121                       # Transaction distribution
system.tol2bus.trans_dist::SCUpgradeReq         48122                       # Transaction distribution
system.tol2bus.trans_dist::UpgradeResp         147243                       # Transaction distribution
system.tol2bus.trans_dist::SCUpgradeFailReq           76                       # Transaction distribution
system.tol2bus.trans_dist::UpgradeFailResp           76                       # Transaction distribution
system.tol2bus.trans_dist::ReadExReq           828221                       # Transaction distribution
system.tol2bus.trans_dist::ReadExResp          828222                       # Transaction distribution
system.tol2bus.trans_dist::ReadCleanReq       3384677                       # Transaction distribution
system.tol2bus.trans_dist::ReadSharedReq      1705122                       # Transaction distribution
system.tol2bus.trans_dist::InvalidateReq         3459                       # Transaction distribution
system.tol2bus.trans_dist::InvalidateResp         3459                       # Transaction distribution
system.tol2bus.pkt_count_system.cpu0.icache.mem_side::system.l2.cpu_side      3595806                       # Packet count per connected master and slave (bytes)
system.tol2bus.pkt_count_system.cpu0.dcache.mem_side::system.l2.cpu_side      4317500                       # Packet count per connected master and slave (bytes)
system.tol2bus.pkt_count_system.cpu1.icache.mem_side::system.l2.cpu_side      6558006                       # Packet count per connected master and slave (bytes)
system.tol2bus.pkt_count_system.cpu1.dcache.mem_side::system.l2.cpu_side      3081272                       # Packet count per connected master and slave (bytes)
system.tol2bus.pkt_count::total              17552584                       # Packet count per connected master and slave (bytes)
system.tol2bus.pkt_size_system.cpu0.icache.mem_side::system.l2.cpu_side    153417728                       # Cumulative packet size per connected master and slave (bytes)
system.tol2bus.pkt_size_system.cpu0.dcache.mem_side::system.l2.cpu_side    175832960                       # Cumulative packet size per connected master and slave (bytes)
system.tol2bus.pkt_size_system.cpu1.icache.mem_side::system.l2.cpu_side    279806912                       # Cumulative packet size per connected master and slave (bytes)
system.tol2bus.pkt_size_system.cpu1.dcache.mem_side::system.l2.cpu_side    123725184                       # Cumulative packet size per connected master and slave (bytes)
system.tol2bus.pkt_size::total              732782784                       # Cumulative packet size per connected master and slave (bytes)
system.tol2bus.snoops                        22360740                       # Total snoops (count)
system.tol2bus.snoopTraffic                  84090432                       # Total snoop traffic (bytes)
system.tol2bus.snoop_fanout::samples         28103495                       # Request fanout histogram
system.tol2bus.snoop_fanout::mean            0.235355                       # Request fanout histogram
system.tol2bus.snoop_fanout::stdev           0.468612                       # Request fanout histogram
system.tol2bus.snoop_fanout::underflows             0      0.00%      0.00% # Request fanout histogram
system.tol2bus.snoop_fanout::0               22046134     78.45%     78.45% # Request fanout histogram
system.tol2bus.snoop_fanout::1                5500429     19.57%     98.02% # Request fanout histogram
system.tol2bus.snoop_fanout::2                 556932      1.98%    100.00% # Request fanout histogram
system.tol2bus.snoop_fanout::3                      0      0.00%    100.00% # Request fanout histogram
system.tol2bus.snoop_fanout::4                      0      0.00%    100.00% # Request fanout histogram
system.tol2bus.snoop_fanout::5                      0      0.00%    100.00% # Request fanout histogram
system.tol2bus.snoop_fanout::6                      0      0.00%    100.00% # Request fanout histogram
system.tol2bus.snoop_fanout::7                      0      0.00%    100.00% # Request fanout histogram
system.tol2bus.snoop_fanout::8                      0      0.00%    100.00% # Request fanout histogram
system.tol2bus.snoop_fanout::overflows              0      0.00%    100.00% # Request fanout histogram
system.tol2bus.snoop_fanout::min_value              0                       # Request fanout histogram
system.tol2bus.snoop_fanout::max_value              2                       # Request fanout histogram
system.tol2bus.snoop_fanout::total           28103495                       # Request fanout histogram
system.tol2bus.reqLayer0.occupancy        11646031240                       # Layer occupancy (ticks)
system.tol2bus.reqLayer0.utilization              5.6                       # Layer utilization (%)
system.tol2bus.respLayer1.occupancy        2242650696                       # Layer occupancy (ticks)
system.tol2bus.respLayer1.utilization             1.1                       # Layer utilization (%)
system.tol2bus.respLayer0.occupancy        1799372213                       # Layer occupancy (ticks)
system.tol2bus.respLayer0.utilization             0.9                       # Layer utilization (%)
system.tol2bus.respLayer3.occupancy        1634806986                       # Layer occupancy (ticks)
system.tol2bus.respLayer3.utilization             0.8                       # Layer utilization (%)
system.tol2bus.respLayer2.occupancy        3279723619                       # Layer occupancy (ticks)
system.tol2bus.respLayer2.utilization             1.6                       # Layer utilization (%)
system.tol2bus.snoopLayer0.occupancy            33004                       # Layer occupancy (ticks)
system.tol2bus.snoopLayer0.utilization            0.0                       # Layer utilization (%)

---------- End Simulation Statistics   ----------
