Redirecting stdout to /vol1/msoyturk/gem5/results/sssp/gowalla.el/prefetch_SignaturePathPrefetcher_BIPRP/output.txt
Redirecting stderr to /vol1/msoyturk/gem5/results/sssp/gowalla.el/prefetch_SignaturePathPrefetcher_BIPRP/error.txt
gem5 Simulator System.  http://gem5.org
gem5 is copyrighted software; use the --copyright option for details.

gem5 compiled Apr 26 2020 13:32:47
gem5 started Apr 30 2020 04:28:23
gem5 executing on draco, pid 1747
command line: /vol1/msoyturk/gem5/build/RISCV/gem5.fast -re --outdir=/vol1/msoyturk/gem5/results/sssp/gowalla.el/prefetch_SignaturePathPrefetcher_BIPRP --stdout-file=output.txt --stderr-file=error.txt /vol1/msoyturk/gem5/configs/example/my_se.py -c /vol1/msoyturk/gem5/gapbs/sssp -o '-f /vol1/msoyturk/gem5/gapbs/test/graphs/gowalla.el' --caches --l1d_size=2kB --l1i_size=2kB --cpu-type=DerivO3CPU -n 4 --mem-size=512MB --l2cache --l2_size=4kB --l2-hwp-type=SignaturePathPrefetcher --l2-replacement-policy=BIPRP --l1i_mshrs=4 --l1d_mshrs=4 --l2_mshrs=20 --l1i_write_buffers=8 --l1d_write_buffers=8 --l2_write_buffers=8

info: Standard input is not a terminal, disabling listeners.
Warning: l2-hwp-type is set ( SignaturePathPrefetcher ), but the current l2 has a default Hardware Prefetcher of type <class 'm5.params.NullSimObject'> , using the specified by the flag option.
Global frequency set at 1000000000000 ticks per second
**** REAL SIMULATION ****
Read Time:           2.04024
Build Time:          0.41867
Graph has 196591 nodes and 1900654 directed edges for degree: 9
    0          1     0.04840
   28          1     0.01512
   37          1     0.05606
   40          1     0.02968
   42          1     0.09847
   43          2     0.09286
   44          2     0.04987
   45          2     0.06922
   46          5     0.09905
   47          6     0.07651
   48          6     0.13624
   49          6     1.33064
   50         15     1.06921
   51         33     0.52686
   52         36     1.58105
   53         64     0.96410
   54         80     1.46513
   55        149     2.76577
   56        209     3.51125
   57        339     2.03118
   58        445     1.70563
   59        528     2.93482
   60        713     2.16164
   61        814     1.86055
   62        928     1.84971
   63       1037     1.82629
   64       1147     1.85492
   65       1172     1.58078
   66       1220     1.61550
   67       1273     1.56692
   68       1329     1.38261
   69       1496     1.48594
   70       1509     1.34653
   71       1480     1.28333
   72       1609     1.32487
   73       1564     1.17986
   74       1645     1.11971
   75       1590     1.12179
   76       1695     1.03463
   77       1652     0.92365
   78       1631     0.91219
   79       1626     0.94588
   80       1637     0.82544
   81       1749     0.87663
   82       1634     0.77914
   83       1706     0.78827
   84       1724     0.74328
   85       1679     0.73312
   86       1690     0.68020
   87       1680     0.71709
   88       1707     0.69523
   89       1616     0.60069
   90       1755     0.66307
   91       1788     0.67947
   92       1715     0.61716
   93       1752     0.63553
   94       1720     0.64316
   95       1697     0.58482
   96       1703     0.57124
   97       1686     0.55405
   98       1689     0.50649
   99       1692     0.52518
  100       1667     0.55890
  101       1671     0.52884
  102       1707     0.50415
  103       1694     0.51392
  104       1697     0.48212
  105       1580     0.45670
  106       1689     0.45276
  107       1651     0.44799
  108       1619     0.41400
  109       1573     0.39626
  110       1678     0.46699
  111       1656     0.42665
  112       1642     0.37350
  113       1600     0.38032
  114       1562     0.37994
  115       1592     0.37916
  116       1510     0.33568
  117       1644     0.37297
  118       1607     0.36184
  119       1678     0.37626
  120       1670     0.35373
  121       1584     0.32628
  122       1699     0.37077
  123       1605     0.31924
  124       1608     0.32316
  125       1589     0.33191
  126       1544     0.34043
  127       1527     0.32060
  128       1545     0.32076
  129       1614     0.29626
  130       1545     0.32634
  131       1503     0.26513
  132       1562     0.31159
  133       1500     0.28845
  134       1509     0.28889
  135       1499     0.26385
  136       1537     0.27980
  137       1458     0.24411
  138       1473     0.25945
  139       1403     0.26260
  140       1498     0.25786
  141       1473     0.23947
  142       1481     0.25528
  143       1519     0.23997
  144       1464     0.26210
  145       1464     0.23500
  146       1450     0.23279
  147       1418     0.24922
  148       1434     0.23437
  149       1430     0.21905
  150       1358     0.24197
  151       1439     0.21545
  152       1533     0.23764
  153       1390     0.21153
  154       1385     0.20322
  155       1403     0.20958
  156       1320     0.19731
  157       1322     0.18157
  158       1338     0.18897
  159       1377     0.19672
  160       1385     0.20787
  161       1256     0.19264
  162       1377     0.20000
  163       1319     0.17688
  164       1355     0.18924
  165       1328     0.18109
  166       1389     0.19031
  167       1302     0.17749
  168       1295     0.19239
  169       1263     0.17283
  170       1308     0.16434
  171       1295     0.17694
  172       1289     0.16653
  173       1315     0.16221
  174       1291     0.17260
  175       1255     0.15393
  176       1272     0.15458
  177       1313     0.16297
  178       1225     0.17337
  179       1246     0.15045
  180       1258     0.14434
  181       1264     0.17145
  182       1240     0.15052
  183       1213     0.14019
  184       1279     0.18002
  185       1180     0.13714
  186       1172     0.14195
  187       1204     0.15200
  188       1172     0.13625
  189       1213     0.15875
  190       1184     0.13638
  191       1193     0.13934
  192       1178     0.15049
  193       1144     0.15315
  194       1166     0.13849
  195       1140     0.16595
  196       1167     0.13259
  197       1179     0.14036
  198       1135     0.12820
  199       1125     0.13179
  200       1169     0.13857
  201       1200     0.13351
  202       1116     0.12173
  203       1150     0.13034
  204       1119     0.12433
  205       1122     0.12325
  206       1117     0.13462
  207       1110     0.12482
  208       1089     0.11853
  209       1111     0.11677
  210       1101     0.12940
  211       1110     0.11514
  212       1103     0.12172
  213       1093     0.12586
  214       1124     0.12376
  215       1109     0.11072
  216       1053     0.11113
  217       1064     0.11583
  218       1105     0.11091
  219       1080     0.11346
  220       1070     0.11243
  221       1020     0.10507
  222       1070     0.12145
  223       1090     0.11559
  224       1075     0.10444
  225       1021     0.10854
  226       1029     0.10519
  227       1067     0.10031
  228        970     0.10903
  229        976     0.11433
  230       1077     0.11392
  231       1024     0.09735
  232       1049     0.11658
  233       1046     0.10294
  234       1029     0.09894
  235       1001     0.10547
  236       1004     0.09652
  237        962     0.10121
  238       1016     0.10474
  239       1041     0.10595
  240        987     0.10911
  241        977     0.08506
  242       1003     0.09403
  243        983     0.09563
  244        974     0.09106
  245        981     0.08362
  246        995     0.09702
  247        976     0.10565
  248        965     0.08470
  249        973     0.08795
  250        992     0.09858
  251        969     0.09251
  252        978     0.09427
  253        921     0.09014
  254        921     0.08064
  255        942     0.08297
  256        948     0.08820
  257        914     0.08172
  258        946     0.09479
  259       1000     0.08848
  260        911     0.08404
  261        932     0.08710
  262        913     0.09448
  263        888     0.08151
  264        899     0.08174
  265        920     0.08747
  266        917     0.08264
  267        941     0.09094
  268        891     0.08397
  269        879     0.08416
  270        905     0.09125
  271        888     0.07713
  272        891     0.08014
  273        895     0.08425
  274        876     0.06821
  275        892     0.08750
  276        952     0.09137
  277        919     0.07796
  278        871     0.08084
  279        869     0.07706
  280        937     0.08095
  281        886     0.07665
  282        851     0.07576
  283        855     0.07168
  284        879     0.07877
  285        862     0.07012
  286        838     0.07145
  287        875     0.07324
  288        826     0.07069
  289        884     0.07106
  290        859     0.07423
  291        824     0.06979
  292        821     0.06229
  293        874     0.07730
  294        890     0.07366
  295        850     0.06950
  296        872     0.07683
  297        836     0.07604
  298        864     0.07466
  299        876     0.06592
  300        855     0.07057
  301        817     0.06938
  302        820     0.06995
  303        791     0.06733
  304        824     0.07205
  305        828     0.07289
  306        808     0.06679
  307        768     0.06548
  308        761     0.07294
  309        726     0.06592
  310        768     0.06706
  311        662     0.05651
  312        665     0.07092
  313        618     0.05986
  314        608     0.05926
  315        611     0.06197
  316        515     0.05815
  317        501     0.04538
  318        470     0.05122
  319        484     0.04797
  320        472     0.05199
  321        450     0.04383
  322        468     0.05504
  323        425     0.04392
  324        410     0.04922
  325        411     0.06019
  326        365     0.04541
  327        406     0.04487
  328        367     0.04070
  329        327     0.03763
  330        345     0.04586
  331        310     0.03959
  332        330     0.03862
  333        316     0.03331
  334        335     0.04420
  335        280     0.04160
  336        318     0.04391
  337        273     0.04581
  338        283     0.03601
  339        282     0.04347
  340        270     0.03544
  341        317     0.04410
  342        273     0.03905
  343        238     0.02964
  344        239     0.02985
  345        231     0.03178
  346        242     0.03275
  347        235     0.03339
  348        235     0.03500
  349        219     0.02987
  350        216     0.02814
  351        212     0.03653
  352        190     0.02592
  353        189     0.02783
  354        213     0.03101
  355        225     0.03696
  356        208     0.02595
  357        202     0.03262
  358        201     0.03723
  359        176     0.03832
  360        168     0.02950
  361        148     0.02234
  362        168     0.03221
  363        182     0.02881
  364        163     0.02872
  365        175     0.02669
  366        163     0.03080
  367        146     0.03094
  368        150     0.02350
  369        160     0.02707
  370        154     0.02211
  371        166     0.02511
  372        137     0.02500
  373        141     0.02377
  374        151     0.02398
  375        144     0.03207
  376        121     0.03016
  377        143     0.02127
  378        129     0.03441
  379        127     0.02160
  380        111     0.02633
  381        135     0.02307
  382        127     0.02867
  383        107     0.01724
  384        108     0.02090
  385        124     0.02619
  386        111     0.02471
  387        125     0.02416
  388        118     0.01683
  389        101     0.02829
  390        107     0.02306
  391        107     0.01707
  392        122     0.02528
  393        122     0.01963
  394         96     0.01821
  395         96     0.01817
  396         92     0.01718
  397         92     0.02404
  398         98     0.02145
  399        104     0.02650
  400         97     0.02026
  401         92     0.02703
  402        102     0.02076
  403         82     0.01612
  404         88     0.02824
  405         68     0.02219
  406         76     0.02120
  407        103     0.01827
  408         83     0.02223
  409         89     0.02440
  410         87     0.02814
  411         65     0.01792
  412         83     0.02474
  413         96     0.02049
  414         68     0.02008
  415         80     0.02484
  416         78     0.02072
  417         85     0.02252
  418         86     0.02222
  419         64     0.02120
  420         67     0.02203
  421         69     0.02090
  422         72     0.02574
  423         72     0.02629
  424         75     0.02342
  425         74     0.02129
  426         72     0.02290
  427         53     0.01540
  428         69     0.02388
  429         64     0.01958
  430         68     0.01735
  431         74     0.01836
  432         57     0.01964
  433         57     0.01970
  434         51     0.01811
  435         63     0.02194
  436         52     0.02211
  437         61     0.01911
  438         64     0.01943
  439         57     0.01846
  440         50     0.01594
  441         61     0.02134
  442         43     0.01340
  443         49     0.01284
  444         51     0.02573
  445         59     0.01809
  446         50     0.01903
  447         62     0.02567
  448         58     0.02048
  449         49     0.02124
  450         40     0.01807
  451         47     0.01623
  452         60     0.02353
  453         42     0.01880
  454         49     0.01837
  455         45     0.02401
  456         38     0.01441
  457         47     0.01908
  458         51     0.01988
  459         34     0.01101
  460         37     0.02593
  461         43     0.01655
  462         46     0.01589
  463         45     0.01210
  464         45     0.02302
  465         39     0.01697
  466         49     0.01825
  467         40     0.01611
  468         43     0.01176
  469         38     0.01189
  470         32     0.01688
  471         37     0.01579
  472         44     0.01630
  473         35     0.01446
  474         38     0.01767
  475         43     0.01950
  476         48     0.02044
  477         36     0.02217
  478         40     0.01332
  479         53     0.02346
  480         35     0.02021
  481         33     0.01284
  482         42     0.01915
  483         44     0.01744
  484         42     0.01872
  485         36     0.01577
  486         32     0.02026
  487         28     0.01226
  488         38     0.01701
  489         27     0.01419
  490         29     0.01857
  491         25     0.01346
  492         22     0.01460
  493         28     0.01241
  494         23     0.01191
  495         27     0.01421
  496         21     0.01231
  497         30     0.01200
  498         28     0.01142
  499         23     0.01224
  500         24     0.01285
  501         24     0.01001
  502         29     0.01480
  503         30     0.01460
  504         30     0.01536
  505         24     0.01871
  506         31     0.01362
  507         29     0.01370
  508         23     0.01460
  509         25     0.01086
  510         19     0.01208
  511         23     0.01399
  512         23     0.01514
  513         20     0.01300
  514         20     0.01115
  515         28     0.01440
  516         34     0.01683
  517         21     0.01296
  518         28     0.01010
  519         27     0.01695
  520         19     0.00895
  521         30     0.01830
  522         25     0.01612
  523         30     0.01432
  524         20     0.01325
  525         27     0.01137
  526         19     0.00837
  527         31     0.01494
  528         22     0.01765
  529         19     0.01746
  530         20     0.01230
  531         25     0.01518
  532         22     0.01290
  533         20     0.01698
  534         18     0.01250
  535         22     0.01149
  536         18     0.01153
  537         20     0.01339
  538          5     0.00702
  539         26     0.01420
  540         12     0.01202
  541          7     0.01254
  542         24     0.00961
  543         10     0.01014
  544          5     0.00823
  545         19     0.01286
  546         15     0.00784
  547         14     0.01187
  548         11     0.00771
  549         11     0.01240
  550         12     0.00872
  551         10     0.00741
  552         15     0.01267
  553         18     0.01159
  554         13     0.01273
  555         22     0.01243
  556         13     0.00955
  557         13     0.00761
  558         16     0.00870
  559         14     0.00846
  560         10     0.01052
  561         15     0.01033
  562         23     0.01294
  563         11     0.00951
  564         13     0.00779
  565          9     0.01007
  566          7     0.00713
  567          7     0.00688
  568         11     0.00726
  569         14     0.01029
  570         12     0.00924
  571         11     0.00765
  572          6     0.00681
  573         12     0.00789
  574         14     0.00822
  575          6     0.00648
  576         12     0.01072
  577          7     0.00661
  578          5     0.00625
  579         13     0.01342
  580          4     0.00609
  581         11     0.00956
  582         11     0.01138
  583          6     0.00649
  584         10     0.00701
  585          4     0.00666
  586          9     0.00693
  587         10     0.00730
  588         14     0.01221
  589         12     0.00719
  590          9     0.00714
  591          8     0.01211
  592         11     0.00749
  593          7     0.00723
  594          6     0.00637
  595          6     0.00604
  596          7     0.01303
  597          9     0.00707
  598          8     0.01012
  599          5     0.00628
  600          6     0.00634
  601          9     0.00720
  602          7     0.00873
  603          8     0.01315
  604          3     0.00577
  605          7     0.00681
  606          7     0.00666
  607          3     0.00671
  608          8     0.03039
  609          6     0.01151
  610          4     0.00656
  611          8     0.00768
  612          7     0.00870
  613          4     0.00856
  614          8     0.00666
  615          7     0.00638
  616          5     0.00930
  617          6     0.00636
  618          6     0.00571
  619          5     0.00825
  620          5     0.00584
  621          4     0.00614
  622          4     0.00619
  623          3     0.00547
  624          4     0.00591
  625          4     0.01179
  626          4     0.01229
  627          5     0.00614
  628          8     0.00882
  629          6     0.00661
  630          4     0.00553
  631          9     0.00719
  632          6     0.00614
  634          3     0.00541
  635          7     0.00626
  636          3     0.01227
  637          5     0.00641
  638          1     0.00578
  639          7     0.00883
  640          1     0.00558
  641          5     0.00626
  642          3     0.00565
  643          6     0.00642
  644          3     0.00586
  645          6     0.00653
  646          3     0.00600
  647          2     0.00575
  648          8     0.00799
  649          2     0.01619
  650          1     0.00604
  651          3     0.01006
  652          4     0.00651
  653          4     0.00553
  654          5     0.00810
  655          5     0.00593
  656          5     0.00651
  657          3     0.00560
  658          7     0.00992
  659          5     0.00640
  660          2     0.00914
  661          2     0.00562
  662          4     0.00608
  663          1     0.00567
  664          6     0.01044
  665          2     0.00592
  666          5     0.00812
  667          2     0.00576
  668          6     0.00637
  669          3     0.00575
  670          2     0.00596
  671          2     0.00566
  672          3     0.00555
  673          3     0.00757
  674          2     0.00545
  675          3     0.00549
  676          2     0.00516
  679          1     0.00586
  680          3     0.00677
  681          1     0.00570
  682          1     0.00566
  683          2     0.00542
  684          4     0.00593
  685          3     0.00893
  686          4     0.00567
  687          1     0.00519
  688          8     0.01470
  689          1     0.00728
  690          3     0.00565
  691          1     0.00558
  692          1     0.00564
  693          2     0.00585
  695          1     0.00578
  696          2     0.00552
  697          3     0.00646
  698          1     0.00619
  700          3     0.00631
  701          1     0.00582
  702          3     0.00535
  704          1     0.00533
  705          2     0.00556
  706          1     0.00584
  707          2     0.01131
  708          1     0.00587
  709          2     0.00583
  710          3     0.00571
  711          2     0.00595
  712          2     0.00584
  713          1     0.01150
  714          2     0.00549
  715          1     0.00582
  716          1     0.01145
  718          2     0.00607
  719          1     0.00560
  720          4     0.00894
  722          2     0.00588
  724          1     0.00872
  725          4     0.00825
  726          5     0.00583
  727          2     0.00587
  728          1     0.00544
  729          3     0.00594
  731          2     0.00593
  732          5     0.00927
  733          3     0.00593
  734          2     0.00601
  735          2     0.00969
  737          1     0.00541
  739          1     0.00561
  740          3     0.00688
  742          3     0.00618
  743          1     0.00555
  744          4     0.00603
  745          1     0.00585
  746          3     0.00572
  747          1     0.00571
  749          2     0.00560
  750          1     0.03912
  751          1     0.00626
  753          3     0.00546
  754          1     0.00563
  755          2     0.00986
  756          3     0.01067
  757          1     0.00586
  758          2     0.00560
  759          1     0.00571
  760          2     0.00546
  761          3     0.00653
  762          1     0.00573
  765          2     0.00568
  766          1     0.00608
  768          1     0.00823
  770          2     0.00576
  771          2     0.00575
  772          3     0.00635
  774          1     0.00606
  775          1     0.00596
  776          2     0.00601
  777          2     0.00545
  782          1     0.00590
  783          2     0.00587
  784          1     0.00557
  785          2     0.00557
  787          2     0.00615
  788          1     0.00549
  789          2     0.00572
  793          1     0.00560
  794          2     0.00615
  797          1     0.00516
  798          1     0.00575
  800          1     0.00832
  801          2     0.00918
  803          2     0.00576
  804          1     0.00564
  805          1     0.00943
  809          1     0.00571
  818          2     0.00565
  819          1     0.00594
  820          1     0.00587
  824          1     0.00536
  826          1     0.00546
  828          2     0.00576
  831          1     0.00605
  837          2     0.00946
  840          1     0.00575
  843          1     0.00588
  845          1     0.00611
  850          1     0.00566
  851          1     0.00521
  857          1     0.00576
  860          1     0.01058
  866          1     0.01126
  875          1     0.00589
  877          3     0.00840
  886          1     0.00592
  887          1     0.00869
  895          1     0.00582
  901          1     0.00551
  904          2     0.00564
  908          1     0.00534
  912          1     0.00557
  914          1     0.00591
  919          1     0.00567
  929          1     0.00550
  937          1     0.00593
  938          1     0.00522
  939          1     0.00545
  940          1     0.00555
  944          1     0.00576
  951          1     0.00546
  959          1     0.00580
  962          2     0.00614
  968          1     0.00623
  983          1     0.00556
  987          1     0.00534
  990          1     0.00564
  994          1     0.00613
  997          1     0.00625
 1021          1     0.00619
 1067          1     0.00492
took 781 iterations
Trial Time:          0.11992
    0          1     0.02813
   48          1     0.00642
   80          1     0.00572
   83          1     0.02844
   93          1     0.02915
   94          1     0.01333
  102          1     0.00892
  105          1     0.01630
  117          1     0.02066
  125          2     0.01573
  127          1     0.02175
  130          1     0.02299
  132          3     0.03423
  135          1     0.00609
  139          1     0.04828
  142          1     3.94121
  143         37     0.18565
  144         48     0.73530
  145         45     0.32821
  146         60     0.98943
  147         74     0.43616
  148         88     1.28872
  149        106     2.02200
  150        138     1.19187
  151        197     1.62202
  152        247     3.94741
  153        375     1.91228
  154        476     2.04365
  155        628     2.16048
  156        705     1.92103
  157        856     2.14700
  158       1016     2.02056
  159       1075     2.01220
  160       1208     1.85604
  161       1230     1.62422
  162       1364     1.58574
  163       1335     1.46085
  164       1454     1.46646
  165       1546     1.45415
  166       1510     1.31797
  167       1563     1.28086
  168       1624     1.20995
  169       1661     1.21716
  170       1584     1.01076
  171       1609     1.07109
  172       1693     0.97226
  173       1694     0.97818
  174       1695     0.94095
  175       1741     0.93787
  176       1647     0.84950
  177       1712     0.81510
  178       1712     0.78985
  179       1769     0.78823
  180       1780     0.79205
  181       1708     0.72903
  182       1720     0.70081
  183       1645     0.65325
  184       1713     0.69408
  185       1652     0.65072
  186       1721     0.62431
  187       1719     0.60283
  188       1735     0.63255
  189       1684     0.61634
  190       1726     0.61271
  191       1700     0.54239
  192       1720     0.56756
  193       1668     0.54667
  194       1814     0.54736
  195       1692     0.50208
  196       1697     0.53023
  197       1775     0.51541
  198       1690     0.46682
  199       1699     0.45478
  200       1699     0.43149
  201       1634     0.42979
  202       1619     0.42332
  203       1649     0.41281
  204       1679     0.40281
  205       1630     0.40075
  206       1624     0.39194
  207       1672     0.37574
  208       1679     0.38074
  209       1582     0.38085
  210       1645     0.36508
  211       1637     0.33439
  212       1614     0.34912
  213       1627     0.35668
  214       1571     0.34221
  215       1669     0.35541
  216       1615     0.35483
  217       1638     0.34272
  218       1597     0.33167
  219       1594     0.30940
  220       1652     0.33294
  221       1602     0.30121
  222       1583     0.32512
  223       1486     0.28866
  224       1609     0.32250
  225       1542     0.30303
  226       1546     0.29126
  227       1533     0.27045
  228       1492     0.27913
  229       1551     0.27453
  230       1500     0.26804
  231       1451     0.24917
  232       1518     0.27233
  233       1506     0.27385
  234       1483     0.25643
  235       1475     0.24105
  236       1523     0.24608
  237       1429     0.21493
  238       1432     0.23549
  239       1505     0.26316
  240       1431     0.22657
  241       1428     0.22379
  242       1468     0.22297
  243       1445     0.23966
  244       1445     0.21452
  245       1435     0.23517
  246       1410     0.22935
  247       1393     0.21090
  248       1397     0.20104
  249       1365     0.21394
  250       1417     0.21352
  251       1367     0.19942
  252       1353     0.21296
  253       1350     0.18972
  254       1349     0.17278
  255       1394     0.19937
  256       1298     0.18923
  257       1323     0.17685
  258       1333     0.18529
  259       1287     0.18467
  260       1352     0.17833
  261       1254     0.16942
  262       1239     0.15626
  263       1347     0.19401
  264       1358     0.17474
  265       1277     0.17082
  266       1295     0.16965
  267       1280     0.16430
  268       1305     0.17755
  269       1225     0.15722
  270       1233     0.16022
  271       1169     0.17218
  272       1259     0.15209
  273       1280     0.15166
  274       1270     0.18206
  275       1243     0.16179
  276       1249     0.15516
  277       1238     0.14550
  278       1217     0.14434
  279       1252     0.13449
  280       1214     0.15543
  281       1153     0.14224
  282       1179     0.17122
  283       1217     0.15323
  284       1197     0.14733
  285       1219     0.16209
  286       1097     0.11670
  287       1174     0.13772
  288       1226     0.13963
  289       1164     0.14966
  290       1188     0.15307
  291       1117     0.14753
  292       1120     0.12910
  293       1114     0.12709
  294       1154     0.14275
  295       1125     0.12222
  296       1119     0.13587
  297       1148     0.13235
  298       1093     0.12668
  299       1128     0.13159
  300       1082     0.13311
  301       1165     0.12265
  302       1115     0.11980
  303       1091     0.12297
  304       1057     0.11765
  305       1146     0.12773
  306       1112     0.12452
  307       1119     0.12693
  308       1104     0.10614
  309       1080     0.10761
  310       1089     0.12690
  311       1066     0.10522
  312       1112     0.11822
  313       1121     0.12026
  314       1049     0.11882
  315       1102     0.10620
  316       1035     0.10430
  317       1089     0.11224
  318       1059     0.11115
  319       1101     0.12127
  320       1008     0.09468
  321       1022     0.10911
  322       1045     0.11040
  323       1047     0.09543
  324        971     0.09840
  325        985     0.10855
  326       1039     0.10800
  327       1068     0.10489
  328       1019     0.10411
  329       1030     0.09594
  330        975     0.09724
  331       1047     0.09775
  332       1054     0.10678
  333        986     0.09655
  334       1064     0.10484
  335       1026     0.09840
  336       1001     0.09484
  337       1032     0.08837
  338        993     0.10311
  339        988     0.09960
  340        975     0.08707
  341        946     0.09754
  342        941     0.09482
  343        960     0.10060
  344       1002     0.08918
  345        934     0.09149
  346        956     0.09311
  347        944     0.08228
  348       1000     0.09019
  349        941     0.08619
  350        973     0.09441
  351        967     0.08842
  352        969     0.09108
  353        937     0.07746
  354        919     0.09149
  355        941     0.08761
  356        890     0.08233
  357        933     0.07751
  358        916     0.08412
  359        881     0.07901
  360        942     0.08628
  361        904     0.07282
  362        921     0.07887
  363        887     0.08092
  364        884     0.07119
  365        910     0.08773
  366        909     0.08111
  367        897     0.08583
  368        892     0.09028
  369        933     0.08379
  370        915     0.08134
  371        910     0.08092
  372        874     0.07401
  373        861     0.07237
  374        884     0.07491
  375        871     0.06639
  376        877     0.08089
  377        863     0.07515
  378        888     0.07972
  379        881     0.06999
  380        884     0.09176
  381        816     0.07134
  382        890     0.07049
  383        814     0.06600
  384        843     0.06897
  385        878     0.07021
  386        877     0.07895
  387        862     0.06996
  388        836     0.07662
  389        891     0.08700
  390        817     0.07841
  391        878     0.06068
  392        839     0.07660
  393        859     0.06871
  394        844     0.07338
  395        791     0.06506
  396        809     0.06562
  397        858     0.06274
  398        768     0.07201
  399        765     0.07428
  400        790     0.05914
  401        793     0.06968
  402        643     0.06287
  403        784     0.06352
  404        740     0.06468
  405        737     0.07095
  406        674     0.06177
  407        647     0.05541
  408        633     0.06791
  409        586     0.05803
  410        595     0.05801
  411        547     0.05503
  412        520     0.05510
  413        512     0.05119
  414        469     0.05100
  415        440     0.04817
  416        424     0.05434
  417        434     0.04945
  418        401     0.04043
  419        410     0.04057
  420        408     0.04525
  421        429     0.04766
  422        385     0.04696
  423        366     0.04879
  424        362     0.04937
  425        357     0.05049
  426        331     0.03808
  427        314     0.03582
  428        335     0.04221
  429        351     0.04992
  430        288     0.03766
  431        288     0.04080
  432        291     0.03375
  433        288     0.04334
  434        247     0.03292
  435        263     0.03868
  436        277     0.03691
  437        257     0.03635
  438        247     0.03599
  439        246     0.04050
  440        205     0.03193
  441        245     0.03506
  442        250     0.03553
  443        215     0.03087
  444        214     0.03021
  445        210     0.03967
  446        198     0.02854
  447        234     0.03947
  448        195     0.02932
  449        205     0.03221
  450        175     0.03032
  451        186     0.02922
  452        201     0.03620
  453        177     0.04548
  454        182     0.03970
  455        165     0.03012
  456        187     0.03249
  457        160     0.02604
  458        164     0.02280
  459        175     0.03544
  460        158     0.02374
  461        154     0.02592
  462        160     0.02886
  463        163     0.02505
  464        152     0.02649
  465        138     0.02324
  466        138     0.02240
  467        144     0.02480
  468        154     0.02659
  469        143     0.02233
  470        136     0.02004
  471        111     0.02773
  472        123     0.02487
  473        140     0.02947
  474        128     0.02684
  475        123     0.02430
  476        115     0.02412
  477        108     0.01802
  478        131     0.02515
  479        135     0.02348
  480        116     0.02454
  481        118     0.03095
  482         92     0.02366
  483        120     0.02256
  484        114     0.02305
  485        102     0.02163
  486         91     0.01680
  487        117     0.03203
  488         92     0.02107
  489        101     0.01769
  490        106     0.02286
  491         98     0.02528
  492        117     0.01959
  493        100     0.01559
  494         97     0.02661
  495         84     0.01902
  496         88     0.01496
  497        115     0.02317
  498         83     0.01990
  499         95     0.02093
  500         74     0.02134
  501         82     0.02220
  502         81     0.02521
  503         66     0.01879
  504         80     0.02351
  505         79     0.01972
  506         75     0.02356
  507         80     0.02280
  508         81     0.02585
  509         79     0.02287
  510         77     0.02457
  511        100     0.02324
  512         75     0.02064
  513         79     0.02608
  514         70     0.02100
  515         72     0.02825
  516         73     0.02463
  517         70     0.01992
  518         68     0.01770
  519         63     0.01751
  520         65     0.01980
  521         66     0.01962
  522         75     0.02323
  523         57     0.02475
  524         66     0.01821
  525         82     0.02160
  526         50     0.01310
  527         63     0.01594
  528         48     0.01752
  529         48     0.01578
  530         60     0.02048
  531         54     0.02018
  532         58     0.01935
  533         59     0.01661
  534         44     0.02380
  535         63     0.02481
  536         53     0.01678
  537         69     0.01992
  538         62     0.02112
  539         59     0.01673
  540         59     0.02942
  541         55     0.01741
  542         46     0.02685
  543         42     0.01965
  544         54     0.01590
  545         54     0.02162
  546         51     0.01697
  547         43     0.01927
  548         44     0.01580
  549         45     0.01714
  550         54     0.01984
  551         47     0.01965
  552         38     0.01503
  553         48     0.01805
  554         32     0.01549
  555         42     0.01748
  556         35     0.01487
  557         43     0.01595
  558         41     0.01243
  559         42     0.01682
  560         37     0.02777
  561         46     0.02047
  562         44     0.01553
  563         51     0.01912
  564         46     0.01527
  565         34     0.01494
  566         36     0.01744
  567         53     0.01877
  568         41     0.01072
  569         39     0.01724
  570         34     0.01341
  571         31     0.01832
  572         44     0.01834
  573         36     0.02019
  574         32     0.01114
  575         34     0.01563
  576         36     0.01109
  577         34     0.01179
  578         34     0.01647
  579         36     0.02033
  580         47     0.01693
  581         32     0.02289
  582         33     0.01848
  583         31     0.02063
  584         36     0.01410
  585         30     0.01686
  586         29     0.01737
  587         23     0.01367
  588         27     0.01349
  589         32     0.01617
  590         32     0.01212
  591         25     0.00958
  592         25     0.01391
  593         27     0.01005
  594         28     0.01353
  595         29     0.01417
  596         24     0.02017
  597         34     0.01112
  598         28     0.00887
  599         16     0.00863
  600         25     0.01580
  601         26     0.01798
  602         25     0.01313
  603         27     0.01765
  604         21     0.01699
  605         25     0.01041
  606         28     0.01465
  607         20     0.01303
  608         22     0.00962
  609         28     0.01672
  610         26     0.01713
  611         16     0.01033
  612         20     0.00836
  613         30     0.02123
  614         24     0.01205
  615         29     0.01240
  616         20     0.01215
  617         33     0.01766
  618         22     0.00908
  619         26     0.01179
  620         29     0.01036
  621         24     0.01194
  622         16     0.01324
  623         27     0.01031
  624         15     0.01207
  625         22     0.01436
  626         27     0.01535
  627         17     0.01291
  628         25     0.01906
  629         18     0.01118
  630         18     0.01262
  631         13     0.01540
  632         19     0.01308
  633         14     0.00805
  634         17     0.01276
  635         13     0.01590
  636         14     0.01558
  637         14     0.01348
  638         17     0.01201
  639         12     0.00753
  640          9     0.00731
  641         17     0.01370
  642         19     0.00891
  643         13     0.01200
  644         14     0.00781
  645         13     0.00805
  646          9     0.01062
  647         12     0.01185
  648         16     0.01227
  649         10     0.00948
  650         15     0.00784
  651         16     0.01214
  652         20     0.01040
  653          8     0.00641
  654         15     0.00929
  655         16     0.01238
  656          9     0.00727
  657         11     0.00800
  658         13     0.01171
  659         15     0.00927
  660         16     0.00797
  661          7     0.00611
  662         10     0.00880
  663          8     0.00685
  664         13     0.00760
  665         14     0.00818
  666         12     0.01373
  667          9     0.00803
  668         13     0.00778
  669         15     0.01335
  670         11     0.00757
  671          5     0.00639
  672          9     0.00720
  673         11     0.00721
  674          9     0.00728
  675         16     0.01351
  676          5     0.00878
  677         11     0.00722
  678          7     0.00715
  679          6     0.00650
  680          8     0.00691
  681          6     0.00856
  682          5     0.00617
  683          8     0.00751
  684         10     0.00729
  685          6     0.01120
  686         14     0.01021
  687          7     0.00668
  688          7     0.00706
  689          5     0.00591
  690          4     0.00877
  691         10     0.01069
  692          8     0.01047
  693          8     0.00668
  694          7     0.00651
  695          6     0.00693
  696          7     0.00985
  697          4     0.00644
  698         10     0.00936
  699          8     0.00673
  700          9     0.00954
  701          5     0.00583
  702         12     0.00739
  703          3     0.00541
  704          8     0.01011
  705          4     0.01046
  706          9     0.00930
  707          5     0.00641
  708          5     0.00625
  709          3     0.00551
  710          3     0.00583
  711          3     0.00588
  712          2     0.00584
  713          4     0.00590
  714          9     0.00690
  715          3     0.00676
  716          9     0.00757
  717          6     0.00689
  718          6     0.00874
  719          4     0.00619
  720          3     0.00614
  721          9     0.01193
  722          2     0.00556
  723          2     0.00598
  724          7     0.00666
  725          5     0.00581
  726          5     0.01067
  727          6     0.00718
  728          7     0.00670
  729          5     0.00606
  730          8     0.00660
  731          5     0.00626
  732          1     0.00700
  733          3     0.01286
  734          2     0.00556
  735          5     0.00564
  736          4     0.01426
  737          5     0.00639
  738          4     0.00644
  739          3     0.00531
  740          5     0.00571
  741          3     0.00832
  742          3     0.00555
  743          2     0.00562
  744          2     0.00537
  745          4     0.00592
  746          5     0.00593
  747          3     0.00610
  748          4     0.00592
  749          3     0.00572
  750          5     0.00869
  751          8     0.00630
  752          2     0.00633
  753          4     0.00585
  754          6     0.00877
  756          4     0.01338
  757          6     0.01015
  758          6     0.00626
  759          3     0.00594
  760          3     0.00994
  761          3     0.00569
  762          1     0.00581
  763          2     0.00594
  764          9     0.00873
  765          2     0.00604
  766          1     0.00566
  768          3     0.00559
  769          1     0.00570
  770          2     0.00568
  771          3     0.00542
  772          3     0.00527
  773          1     0.00570
  774          1     0.00528
  775          2     0.00905
  776          2     0.00548
  777          1     0.00568
  778          1     0.00521
  779          3     0.00582
  780          1     0.00886
  781          3     0.00780
  782          2     0.00547
  783          1     0.00525
  784          5     0.01367
  785          4     0.00632
  786          1     0.00534
  787          1     0.00563
  788          1     0.00530
  789          4     0.00647
  790          2     0.00570
  791          1     0.00494
  792          2     0.00566
  793          4     0.00575
  795          1     0.00505
  796          3     0.01197
  797          2     0.00629
  798          2     0.00589
  799          1     0.00602
  800          1     0.00585
  801          1     0.00560
  803          1     0.00576
  804          2     0.00568
  805          2     0.00555
  806          2     0.00564
  807          3     0.00940
  809          4     0.01028
  810          3     0.00570
  812          2     0.01105
  815          1     0.00557
  816          3     0.00601
  817          1     0.00587
  819          1     0.00584
  820          1     0.00834
  821          4     0.00611
  822          4     0.00586
  823          2     0.00537
  824          5     0.00981
  825          2     0.00553
  826          1     0.00549
  827          2     0.00581
  828          4     0.00592
  830          1     0.00552
  831          4     0.00948
  832          1     0.00566
  833          3     0.00567
  834          2     0.00676
  835          1     0.00587
  836          3     0.00600
  837          1     0.00556
  840          3     0.01724
  841          3     0.00569
  842          1     0.00600
  844          2     0.00568
  845          1     0.00564
  847          2     0.00527
  849          4     0.00597
  852          2     0.01012
  853          2     0.00993
  855          1     0.00557
  856          2     0.00565
  857          2     0.00579
  858          1     0.00526
  859          1     0.00528
  860          1     0.00548
  861          3     0.00555
  862          2     0.00562
  863          1     0.00539
  865          2     0.00557
  866          1     0.00547
  869          1     0.00524
  870          3     0.00653
  872          1     0.00546
  874          2     0.00551
  875          1     0.00585
  876          2     0.00539
  877          2     0.00551
  879          2     0.00556
  881          2     0.00584
  884          1     0.00528
  885          1     0.00553
  887          1     0.00516
  888          1     0.00981
  889          3     0.00699
  890          2     0.00510
  891          1     0.00505
  892          1     0.00581
  894          2     0.00532
  899          1     0.00515
  900          1     0.00557
  901          1     0.00969
  913          1     0.00558
  914          1     0.00568
  915          1     0.00553
  916          2     0.00521
  919          1     0.00565
  921          1     0.00539
  924          2     0.00879
  926          1     0.00557
  927          1     0.00500
  933          1     0.00566
  935          1     0.00532
  938          1     0.00571
  939          1     0.00585
  942          1     0.00637
  953          1     0.00561
  956          2     0.01440
  966          1     0.00557
  967          1     0.00662
  972          1     0.00566
  973          2     0.00588
  983          1     0.00844
  991          2     0.00615
  997          1     0.00567
 1000          2     0.00563
 1002          1     0.00572
 1010          1     0.00561
 1015          1     0.00593
 1025          1     0.00476
 1027          1     0.00508
 1029          1     0.00588
 1030          1     0.00574
 1034          1     0.00550
 1040          1     0.00537
 1049          1     0.00540
 1052          1     0.00591
 1053          1     0.00517
 1058          1     0.00570
 1064          1     0.00579
 1073          1     0.00581
 1083          1     0.00574
 1084          1     0.00538
 1086          1     0.00532
 1093          1     0.00530
 1108          1     0.00622
 1163          1     0.00530
took 787 iterations
Trial Time:          0.12102
    0          1     0.03008
  174          1     0.76091
  175          6     0.10567
  176          4     0.06389
  177          7     0.18491
  178          4     0.05678
  179         10     0.64410
  180         21     0.48972
  181         25     5.38544
  182        107     0.62776
  183        145     1.27653
  184        165     3.32265
  185        255     1.83702
  186        312     3.27358
  187        460     1.57331
  188        536     1.78105
  189        654     2.31020
  190        749     1.97879
  191        883     1.91873
  192        953     1.93453
  193       1140     1.88707
  194       1197     1.60682
  195       1243     1.66358
  196       1337     1.48382
  197       1383     1.47067
  198       1442     1.43911
  199       1490     1.34628
  200       1501     1.31296
  201       1579     1.23514
  202       1553     1.16783
  203       1612     1.17401
  204       1614     1.15937
  205       1681     1.09383
  206       1695     1.00822
  207       1671     0.95335
  208       1742     0.96434
  209       1626     0.83921
  210       1658     0.81530
  211       1693     0.77902
  212       1692     0.75433
  213       1678     0.75034
  214       1680     0.71773
  215       1711     0.73728
  216       1776     0.71164
  217       1671     0.65465
  218       1717     0.67173
  219       1713     0.63560
  220       1707     0.64044
  221       1686     0.58483
  222       1798     0.65746
  223       1725     0.58996
  224       1692     0.60369
  225       1725     0.58916
  226       1749     0.58817
  227       1661     0.52525
  228       1675     0.52851
  229       1693     0.49658
  230       1677     0.49155
  231       1616     0.46012
  232       1706     0.47561
  233       1625     0.46700
  234       1609     0.44685
  235       1674     0.47542
  236       1721     0.44277
  237       1652     0.43702
  238       1668     0.43481
  239       1586     0.41405
  240       1602     0.38657
  241       1649     0.40198
  242       1573     0.37178
  243       1614     0.37539
  244       1682     0.38851
  245       1592     0.34764
  246       1593     0.36842
  247       1636     0.35268
  248       1639     0.34786
  249       1640     0.34416
  250       1658     0.34036
  251       1582     0.33772
  252       1614     0.34131
  253       1567     0.32114
  254       1656     0.33624
  255       1531     0.32596
  256       1653     0.31703
  257       1533     0.29989
  258       1538     0.30756
  259       1565     0.30649
  260       1510     0.28575
  261       1479     0.26995
  262       1556     0.28249
  263       1493     0.25449
  264       1493     0.28099
  265       1450     0.25261
  266       1475     0.26670
  267       1469     0.26558
  268       1421     0.24955
  269       1553     0.28358
  270       1529     0.24753
  271       1426     0.23345
  272       1458     0.25992
  273       1511     0.24275
  274       1453     0.22998
  275       1382     0.22509
  276       1380     0.21806
  277       1486     0.22582
  278       1438     0.21853
  279       1434     0.23236
  280       1423     0.23125
  281       1409     0.20637
  282       1334     0.21603
  283       1429     0.21229
  284       1369     0.19886
  285       1386     0.19439
  286       1377     0.21435
  287       1341     0.20766
  288       1295     0.18391
  289       1465     0.19838
  290       1319     0.16936
  291       1300     0.18750
  292       1343     0.18286
  293       1336     0.20064
  294       1357     0.19601
  295       1309     0.17507
  296       1335     0.19536
  297       1353     0.20413
  298       1265     0.15388
  299       1326     0.18196
  300       1281     0.18151
  301       1300     0.15988
  302       1271     0.17224
  303       1251     0.16814
  304       1300     0.17010
  305       1247     0.16521
  306       1204     0.15197
  307       1250     0.14756
  308       1186     0.14516
  309       1282     0.16871
  310       1255     0.15124
  311       1228     0.15192
  312       1270     0.15193
  313       1208     0.14933
  314       1281     0.17497
  315       1189     0.15240
  316       1237     0.13364
  317       1169     0.14316
  318       1213     0.15356
  319       1163     0.13600
  320       1145     0.13930
  321       1189     0.15556
  322       1139     0.15218
  323       1140     0.15955
  324       1118     0.12401
  325       1154     0.13334
  326       1123     0.13698
  327       1154     0.13231
  328       1167     0.13127
  329       1141     0.13765
  330       1116     0.12638
  331       1149     0.14003
  332       1091     0.12084
  333       1041     0.13534
  334       1200     0.13233
  335       1148     0.12547
  336       1140     0.11938
  337       1080     0.12726
  338       1111     0.13000
  339       1113     0.12619
  340       1135     0.10871
  341       1063     0.12078
  342       1045     0.11197
  343       1102     0.11553
  344       1062     0.12018
  345       1128     0.10799
  346       1112     0.10165
  347       1132     0.11840
  348       1102     0.11528
  349       1110     0.13402
  350       1062     0.10589
  351       1045     0.11097
  352       1067     0.11684
  353       1049     0.09831
  354       1040     0.12180
  355       1045     0.11418
  356       1044     0.09945
  357       1015     0.10820
  358       1048     0.10067
  359        981     0.10015
  360       1050     0.09488
  361       1073     0.11568
  362       1016     0.09827
  363       1062     0.10287
  364        979     0.10033
  365       1044     0.10401
  366       1008     0.09798
  367        970     0.09738
  368        942     0.09203
  369       1007     0.10692
  370        992     0.09522
  371       1017     0.09969
  372       1018     0.09495
  373        996     0.09538
  374       1012     0.10168
  375        972     0.08811
  376        908     0.08781
  377        972     0.10178
  378        961     0.09270
  379        911     0.08058
  380        961     0.09127
  381        992     0.10025
  382        938     0.08505
  383        937     0.09432
  384        973     0.09297
  385       1000     0.08882
  386        915     0.08474
  387        937     0.08822
  388        940     0.08415
  389        927     0.08091
  390        941     0.09280
  391        929     0.07571
  392        885     0.08231
  393        913     0.09245
  394        892     0.07997
  395        914     0.08574
  396        922     0.07803
  397        936     0.08398
  398        934     0.07767
  399        938     0.08811
  400        868     0.06996
  401        905     0.08421
  402        888     0.08210
  403        934     0.07612
  404        916     0.08146
  405        910     0.08172
  406        897     0.08656
  407        910     0.08198
  408        833     0.07197
  409        902     0.09248
  410        880     0.08229
  411        861     0.08278
  412        838     0.06785
  413        883     0.07796
  414        881     0.09304
  415        897     0.08052
  416        831     0.07876
  417        816     0.06776
  418        918     0.08149
  419        917     0.07419
  420        833     0.06515
  421        894     0.08412
  422        857     0.07401
  423        845     0.06522
  424        892     0.07832
  425        824     0.07176
  426        845     0.06357
  427        832     0.06852
  428        847     0.06228
  429        813     0.07109
  430        864     0.07728
  431        814     0.06376
  432        784     0.07073
  433        819     0.06371
  434        747     0.06388
  435        831     0.06924
  436        788     0.06373
  437        716     0.08230
  438        768     0.07649
  439        726     0.07153
  440        697     0.05735
  441        663     0.06146
  442        582     0.06242
  443        594     0.05542
  444        546     0.05220
  445        529     0.05272
  446        546     0.04910
  447        513     0.06141
  448        489     0.05278
  449        459     0.05088
  450        457     0.04465
  451        440     0.05533
  452        439     0.05367
  453        381     0.04172
  454        388     0.04946
  455        392     0.04851
  456        391     0.04279
  457        362     0.04210
  458        351     0.03905
  459        348     0.04611
  460        318     0.03943
  461        329     0.04482
  462        293     0.03726
  463        316     0.04895
  464        314     0.04195
  465        276     0.02986
  466        301     0.03891
  467        273     0.03577
  468        291     0.04506
  469        286     0.03939
  470        264     0.04070
  471        274     0.03409
  472        249     0.03800
  473        250     0.03413
  474        213     0.02939
  475        215     0.02933
  476        241     0.04100
  477        236     0.03748
  478        217     0.02987
  479        243     0.03092
  480        231     0.03335
  481        207     0.02970
  482        186     0.03000
  483        223     0.03987
  484        220     0.03655
  485        178     0.03315
  486        196     0.03070
  487        185     0.03074
  488        197     0.03390
  489        179     0.03351
  490        185     0.03542
  491        154     0.02607
  492        143     0.02678
  493        167     0.02692
  494        153     0.03248
  495        161     0.02348
  496        182     0.03546
  497        139     0.02915
  498        146     0.02018
  499        143     0.02106
  500        152     0.02437
  501        146     0.02196
  502        155     0.02363
  503        151     0.02315
  504        139     0.02902
  505        143     0.02932
  506        152     0.02467
  507        135     0.03246
  508        113     0.03781
  509        127     0.02995
  510        109     0.02329
  511        104     0.02137
  512        113     0.02142
  513        115     0.02439
  514        130     0.02168
  515        104     0.02145
  516        117     0.02291
  517        130     0.02998
  518        114     0.01812
  519        104     0.03173
  520        107     0.02161
  521         92     0.02271
  522         92     0.02004
  523        109     0.02231
  524         94     0.02006
  525         98     0.01852
  526         87     0.02234
  527        102     0.02157
  528         95     0.01761
  529         92     0.02215
  530         84     0.01704
  531         76     0.01728
  532        111     0.02586
  533         82     0.01758
  534         79     0.01809
  535         78     0.02228
  536         82     0.01797
  537         97     0.02324
  538         84     0.02687
  539         82     0.02028
  540         85     0.02353
  541         90     0.01947
  542         74     0.02301
  543         81     0.02309
  544         89     0.02131
  545         70     0.01965
  546         76     0.01935
  547         81     0.02517
  548         78     0.02456
  549         66     0.02202
  550         75     0.02811
  551         83     0.01924
  552         57     0.02408
  553         71     0.02112
  554         69     0.02625
  555         74     0.02186
  556         81     0.01858
  557         70     0.01965
  558         61     0.01913
  559         51     0.01725
  560         63     0.02399
  561         61     0.02019
  562         55     0.02141
  563         63     0.02353
  564         47     0.01310
  565         51     0.02004
  566         57     0.01910
  567         58     0.01987
  568         56     0.01967
  569         50     0.02049
  570         55     0.02212
  571         52     0.01744
  572         65     0.01775
  573         55     0.01757
  574         58     0.02176
  575         50     0.01931
  576         54     0.01584
  577         55     0.01939
  578         50     0.01734
  579         47     0.02494
  580         42     0.02036
  581         48     0.01240
  582         48     0.02091
  583         58     0.01995
  584         48     0.01985
  585         45     0.02550
  586         35     0.01678
  587         46     0.01698
  588         41     0.01389
  589         35     0.01380
  590         38     0.01581
  591         40     0.02036
  592         45     0.02100
  593         37     0.01527
  594         51     0.01637
  595         49     0.01864
  596         34     0.01199
  597         52     0.01715
  598         45     0.01419
  599         36     0.01458
  600         45     0.01727
  601         38     0.01372
  602         44     0.01770
  603         34     0.01036
  604         41     0.01619
  605         31     0.01805
  606         37     0.01643
  607         48     0.02457
  608         40     0.01395
  609         35     0.01745
  610         33     0.01308
  611         45     0.02072
  612         38     0.01983
  613         33     0.01070
  614         43     0.01626
  615         38     0.01836
  616         36     0.01652
  617         29     0.01703
  618         19     0.01815
  619         28     0.01195
  620         29     0.01592
  621         34     0.01950
  622         18     0.00832
  623         29     0.02127
  624         18     0.00860
  625         22     0.01322
  626         22     0.01568
  627         29     0.01199
  628         25     0.01261
  629         34     0.02425
  630         27     0.01687
  631         40     0.02049
  632         24     0.01246
  633         26     0.00908
  634         25     0.01180
  635         26     0.01565
  636         23     0.01401
  637         33     0.01462
  638         25     0.01418
  639         27     0.01011
  640         19     0.01089
  641         21     0.00973
  642         18     0.01076
  643         22     0.00942
  644         17     0.01129
  645         18     0.00896
  646         24     0.01185
  647         29     0.01925
  648         24     0.01499
  649         24     0.01348
  650         39     0.01941
  651         17     0.00792
  652         30     0.01366
  653         27     0.01200
  654         30     0.02356
  655         25     0.01304
  656         24     0.01670
  657         22     0.00859
  658         21     0.01315
  659         23     0.01082
  660         20     0.01350
  661         24     0.02138
  662         20     0.01432
  663         19     0.00909
  664         21     0.01557
  665         23     0.02057
  666         12     0.01348
  667         20     0.00992
  668          7     0.00667
  669         13     0.01209
  670         15     0.00824
  671         16     0.00809
  672         12     0.01196
  673         13     0.00988
  674         13     0.00825
  675          7     0.00644
  676         13     0.00762
  677         12     0.00749
  678         15     0.01350
  679         11     0.00759
  680         15     0.01384
  681         12     0.00937
  682         13     0.01002
  683         21     0.01525
  684         15     0.01082
  685         13     0.00753
  686         20     0.01099
  687         20     0.01549
  688         15     0.00815
  689         13     0.00690
  690         16     0.01002
  691         11     0.00953
  692          9     0.01123
  693         14     0.00855
  694         12     0.01022
  695          5     0.00627
  696         10     0.00749
  697         14     0.00745
  698          9     0.00674
  699         17     0.01051
  700          6     0.00574
  701         11     0.01017
  702          7     0.00911
  703         11     0.01043
  704         10     0.00798
  705          7     0.00664
  706          8     0.00669
  707          8     0.00708
  708          8     0.01098
  709          5     0.00634
  710         14     0.00737
  711          5     0.00958
  712         16     0.00839
  713          7     0.00856
  714          9     0.01138
  715          7     0.00660
  716          6     0.00626
  717         13     0.01023
  718          7     0.00710
  719         11     0.00707
  720          5     0.00822
  721         10     0.01012
  722          7     0.00915
  723         13     0.00809
  724          4     0.00651
  725          7     0.01336
  726          8     0.00836
  727         13     0.01052
  728          8     0.01511
  729          8     0.00679
  730          8     0.00704
  731          6     0.00651
  732          3     0.00582
  733          8     0.00704
  734          7     0.00705
  735          4     0.00641
  736          3     0.00587
  737          6     0.00650
  738          4     0.00957
  739         12     0.00708
  740          6     0.00763
  741          3     0.00616
  742          8     0.00739
  743          6     0.00609
  744          3     0.00837
  745          4     0.00635
  746          6     0.00895
  747          6     0.00645
  748          6     0.00852
  749          5     0.00651
  750          4     0.00830
  751          6     0.00676
  752          3     0.00629
  753          6     0.00823
  754          4     0.00709
  755          2     0.01230
  756          6     0.00683
  757         10     0.00685
  758          2     0.00549
  759          5     0.00628
  760          5     0.00541
  761          5     0.00868
  762          7     0.00701
  763          3     0.00626
  764          5     0.00845
  765          1     0.00585
  766          7     0.00663
  767          4     0.00675
  768          3     0.00570
  769          3     0.00589
  770          5     0.00887
  771          4     0.00617
  772          1     0.00577
  773          5     0.00672
  774          5     0.00805
  775          4     0.00662
  776          4     0.00975
  777          3     0.00565
  778          2     0.00581
  779          4     0.01024
  780          4     0.01314
  781          3     0.00583
  782          2     0.00565
  783          6     0.01001
  784          7     0.00712
  785          4     0.01136
  786          5     0.00658
  787          4     0.01019
  788          3     0.00569
  789          7     0.00942
  790          1     0.00591
  791          1     0.00522
  792          1     0.00512
  793          1     0.00521
  794          3     0.00963
  795          5     0.00588
  796          4     0.00882
  797          5     0.00627
  798          7     0.00824
  799          2     0.00603
  800          4     0.00636
  801          4     0.00567
  802          3     0.00524
  803          2     0.00547
  805          1     0.00662
  806          1     0.00548
  807          1     0.00603
  808          2     0.00591
  810          1     0.00884
  812          2     0.00664
  813          5     0.01239
  814          5     0.00666
  815          6     0.00624
  816          1     0.00572
  817          2     0.00611
  818          1     0.00582
  819          1     0.00603
  821          5     0.00857
  822          1     0.00597
  823          3     0.00565
  824          3     0.00573
  825          3     0.00579
  826          2     0.00580
  827          1     0.00613
  829          1     0.00588
  830          1     0.00551
  832          2     0.00590
  833          2     0.01173
  834          1     0.00576
  835          1     0.00551
  836          2     0.00563
  837          1     0.00574
  838          3     0.01167
  839          1     0.00528
  840          4     0.00577
  841          2     0.01128
  842          2     0.00593
  843          2     0.00611
  844          1     0.00571
  845          3     0.00571
  847          2     0.00556
  850          2     0.00652
  851          2     0.01011
  852          4     0.00579
  853          2     0.00563
  854          1     0.00866
  855          1     0.00552
  856          1     0.00539
  857          3     0.00605
  858          6     0.00600
  859          2     0.00577
  860          2     0.00939
  861          4     0.00616
  862          1     0.00545
  863          1     0.00568
  864          1     0.00535
  865          1     0.00516
  868          2     0.00564
  869          1     0.00592
  870          5     0.00707
  871          4     0.00608
  872          1     0.00559
  873          1     0.00560
  875          2     0.01644
  876          1     0.00579
  877          2     0.00544
  878          1     0.00587
  879          1     0.00575
  880          2     0.00806
  881          3     0.01242
  882          2     0.00587
  883          1     0.00597
  884          3     0.00489
  885          2     0.00577
  886          1     0.00567
  890          1     0.00557
  892          3     0.00606
  893          2     0.00591
  896          2     0.00571
  897          1     0.00522
  898          2     0.00516
  901          2     0.00510
  902          1     0.00560
  903          1     0.00549
  904          2     0.00551
  905          1     0.00536
  906          2     0.00822
  907          1     0.00543
  908          2     0.00538
  909          2     0.00527
  910          1     0.00519
  912          1     0.00560
  914          2     0.00557
  915          1     0.00547
  916          1     0.00532
  917          1     0.00553
  919          1     0.00583
  920          1     0.00523
  922          2     0.00534
  923          1     0.00531
  925          1     0.00520
  926          1     0.00848
  928          2     0.00612
  929          1     0.00570
  930          1     0.01021
  932          1     0.00924
  934          1     0.00548
  935          1     0.00584
  944          1     0.00540
  945          1     0.00579
  947          2     0.00537
  951          1     0.00566
  954          1     0.00524
  960          1     0.00574
  961          1     0.00564
  962          1     0.00553
  966          1     0.00528
  968          3     0.00770
  974          1     0.00510
  976          1     0.00577
  982          2     0.00570
  990          1     0.00977
  991          1     0.00969
 1002          1     0.00797
 1003          2     0.00588
 1007          1     0.00564
 1012          1     0.00840
 1017          1     0.00553
 1020          1     0.00582
 1026          1     0.00618
 1029          2     0.00522
 1034          1     0.00590
 1037          1     0.00571
 1039          1     0.00560
 1044          1     0.00531
 1054          1     0.00554
 1062          1     0.00566
 1063          1     0.00546
 1064          1     0.00553
 1065          1     0.00548
 1074          1     0.00553
 1084          1     0.00584
 1087          2     0.00563
 1089          1     0.00553
 1093          1     0.00556
 1108          1     0.00510
 1112          1     0.00479
 1115          1     0.00562
 1119          1     0.00597
 1122          1     0.00579
 1152          1     0.00613
 1197          1     0.00494
took 779 iterations
Trial Time:          0.12090
    0          1     0.02583
   29          1     0.00579
   53          1     0.00568
   68          1     0.00537
   69          1     0.00529
  128          1     0.13199
  132          1     0.01119
  133          1     0.05638
  135          1     0.09274
  137          1     0.03107
  139          2     0.24358
  140          7     0.20323
  141          1     0.13130
  142          5     0.28033
  143          6     0.43723
  144         15     1.67149
  145         34     1.30994
  146         66     1.35489
  147         91     4.56121
  148        165     3.61734
  149        260     2.09166
  150        299     2.17762
  151        463     2.25350
  152        536     1.58584
  153        707     2.05457
  154        818     1.89149
  155        894     2.08848
  156       1040     1.86683
  157       1082     1.76590
  158       1159     1.65187
  159       1265     1.55499
  160       1378     1.63609
  161       1416     1.52924
  162       1456     1.39131
  163       1510     1.39504
  164       1500     1.34991
  165       1581     1.34132
  166       1683     1.21502
  167       1663     1.22255
  168       1636     1.08245
  169       1550     0.95271
  170       1642     0.96003
  171       1624     0.92588
  172       1654     0.87607
  173       1736     0.89085
  174       1681     0.84302
  175       1698     0.77457
  176       1686     0.80479
  177       1720     0.74271
  178       1671     0.73437
  179       1669     0.65363
  180       1623     0.67533
  181       1721     0.67035
  182       1682     0.64719
  183       1755     0.66328
  184       1625     0.58411
  185       1745     0.67172
  186       1738     0.62796
  187       1775     0.63769
  188       1665     0.58948
  189       1728     0.58857
  190       1625     0.50974
  191       1623     0.50762
  192       1730     0.56159
  193       1797     0.56365
  194       1673     0.53326
  195       1696     0.52405
  196       1717     0.48585
  197       1611     0.46028
  198       1711     0.47752
  199       1656     0.42362
  200       1646     0.43028
  201       1631     0.42915
  202       1680     0.43196
  203       1639     0.39480
  204       1660     0.40327
  205       1534     0.36004
  206       1619     0.36837
  207       1582     0.38898
  208       1565     0.34188
  209       1572     0.34038
  210       1593     0.35808
  211       1667     0.35502
  212       1609     0.35439
  213       1583     0.35946
  214       1614     0.33242
  215       1596     0.31423
  216       1630     0.32478
  217       1635     0.32218
  218       1514     0.32959
  219       1590     0.31844
  220       1621     0.30274
  221       1643     0.34092
  222       1581     0.29600
  223       1608     0.31661
  224       1477     0.28978
  225       1530     0.28024
  226       1519     0.28298
  227       1493     0.27199
  228       1491     0.25965
  229       1454     0.25966
  230       1494     0.25793
  231       1460     0.25130
  232       1443     0.24576
  233       1461     0.25717
  234       1482     0.25806
  235       1535     0.27392
  236       1430     0.23883
  237       1449     0.23287
  238       1426     0.23982
  239       1465     0.23124
  240       1411     0.23369
  241       1437     0.22473
  242       1388     0.22660
  243       1424     0.21319
  244       1466     0.22148
  245       1386     0.21051
  246       1357     0.19588
  247       1411     0.22683
  248       1369     0.19201
  249       1359     0.20956
  250       1352     0.20807
  251       1413     0.21127
  252       1368     0.19355
  253       1298     0.18541
  254       1347     0.20604
  255       1393     0.18979
  256       1365     0.19396
  257       1298     0.17839
  258       1351     0.18711
  259       1305     0.17453
  260       1331     0.19866
  261       1289     0.17455
  262       1288     0.17285
  263       1319     0.17310
  264       1200     0.17017
  265       1315     0.17151
  266       1248     0.15502
  267       1224     0.15408
  268       1270     0.15987
  269       1255     0.16597
  270       1188     0.15417
  271       1247     0.15551
  272       1264     0.15738
  273       1271     0.17753
  274       1227     0.15240
  275       1224     0.15254
  276       1260     0.15459
  277       1234     0.15265
  278       1227     0.15399
  279       1160     0.14297
  280       1231     0.14003
  281       1211     0.14279
  282       1152     0.14025
  283       1177     0.14202
  284       1179     0.13570
  285       1181     0.13321
  286       1170     0.14758
  287       1138     0.13793
  288       1158     0.15026
  289       1160     0.14750
  290       1146     0.13218
  291       1177     0.13320
  292       1166     0.14729
  293       1206     0.13619
  294       1120     0.12922
  295       1129     0.12551
  296       1099     0.13070
  297       1161     0.12098
  298       1149     0.12193
  299       1101     0.12066
  300       1083     0.12025
  301       1091     0.12374
  302       1094     0.14098
  303       1149     0.13735
  304       1109     0.11155
  305       1130     0.12427
  306       1118     0.11535
  307       1116     0.13447
  308       1069     0.11327
  309       1072     0.11106
  310       1101     0.11222
  311       1101     0.10990
  312       1103     0.11790
  313       1076     0.10993
  314       1073     0.11675
  315       1101     0.11761
  316       1083     0.11328
  317        992     0.11277
  318       1003     0.09638
  319       1042     0.09821
  320       1053     0.10749
  321        987     0.10527
  322       1085     0.12292
  323       1017     0.10571
  324       1041     0.11022
  325       1031     0.12590
  326       1028     0.10860
  327        983     0.08916
  328       1034     0.11955
  329        976     0.09105
  330        972     0.10023
  331       1044     0.10795
  332       1107     0.09491
  333       1015     0.08897
  334       1003     0.08933
  335       1018     0.09594
  336       1008     0.09797
  337        953     0.08927
  338        933     0.08822
  339        963     0.09471
  340        946     0.09456
  341        944     0.09011
  342       1013     0.08911
  343        943     0.09778
  344        994     0.08232
  345        924     0.09294
  346        932     0.08239
  347        957     0.09449
  348        957     0.09646
  349        888     0.08310
  350        923     0.08890
  351        937     0.08246
  352        939     0.09416
  353        937     0.08129
  354        949     0.08333
  355        960     0.09093
  356        902     0.08822
  357        936     0.08498
  358        899     0.07844
  359        913     0.08160
  360        897     0.08325
  361        876     0.07768
  362        933     0.09523
  363        890     0.07665
  364        901     0.08291
  365        874     0.07849
  366        860     0.07903
  367        920     0.07711
  368        904     0.07734
  369        924     0.08238
  370        897     0.08352
  371        861     0.07593
  372        860     0.08356
  373        843     0.07273
  374        856     0.08655
  375        869     0.07980
  376        922     0.07026
  377        861     0.07882
  378        888     0.07672
  379        885     0.07299
  380        869     0.07715
  381        891     0.07500
  382        899     0.07797
  383        856     0.07298
  384        789     0.06624
  385        880     0.07465
  386        895     0.08329
  387        875     0.07009
  388        848     0.06950
  389        873     0.07155
  390        847     0.07453
  391        864     0.07927
  392        817     0.06479
  393        846     0.07656
  394        818     0.07167
  395        798     0.07191
  396        830     0.07205
  397        823     0.06594
  398        789     0.05981
  399        810     0.07211
  400        777     0.07474
  401        807     0.07359
  402        751     0.06189
  403        678     0.06010
  404        672     0.06324
  405        652     0.07323
  406        642     0.07289
  407        601     0.05800
  408        556     0.04744
  409        550     0.05954
  410        504     0.05563
  411        521     0.05038
  412        470     0.05484
  413        443     0.04725
  414        452     0.04778
  415        462     0.04865
  416        453     0.04527
  417        445     0.04353
  418        426     0.04905
  419        399     0.04202
  420        382     0.04204
  421        348     0.04561
  422        345     0.04518
  423        301     0.03782
  424        355     0.05291
  425        315     0.03397
  426        331     0.03936
  427        316     0.04995
  428        291     0.03472
  429        290     0.03924
  430        287     0.04614
  431        287     0.04129
  432        287     0.03581
  433        281     0.03378
  434        293     0.04565
  435        245     0.03816
  436        226     0.02912
  437        252     0.03725
  438        242     0.03726
  439        242     0.03641
  440        228     0.02938
  441        205     0.02729
  442        217     0.03425
  443        232     0.03059
  444        199     0.02813
  445        201     0.02833
  446        217     0.03171
  447        226     0.03401
  448        194     0.02950
  449        197     0.03110
  450        193     0.04126
  451        194     0.02778
  452        180     0.03029
  453        156     0.02594
  454        185     0.02930
  455        188     0.03622
  456        157     0.02598
  457        195     0.03343
  458        157     0.03067
  459        132     0.02717
  460        157     0.02328
  461        165     0.02691
  462        139     0.02174
  463        168     0.02913
  464        160     0.03008
  465        129     0.02098
  466        137     0.02056
  467        145     0.02397
  468        153     0.02287
  469        129     0.02007
  470        139     0.02412
  471        123     0.02084
  472        132     0.01841
  473        128     0.02152
  474        136     0.03042
  475        117     0.02884
  476        106     0.02510
  477        122     0.03399
  478        104     0.02167
  479        123     0.02148
  480        127     0.02113
  481        129     0.02423
  482         95     0.02175
[...]
  387       1504     0.29389
  388       1595     0.30482
  389       1493     0.28154
  390       1486     0.28198
  391       1574     0.28807
  392       1514     0.28801
  393       1501     0.28031
  394       1507     0.26700
  395       1491     0.27056
  396       1460     0.26959
  397       1469     0.24596
  398       1420     0.23619
  399       1448     0.24503
  400       1452     0.23385
  401       1504     0.25735
  402       1488     0.24766
  403       1523     0.23732
  404       1431     0.23671
  405       1365     0.22645
  406       1434     0.23599
  407       1453     0.21338
  408       1420     0.22465
  409       1365     0.20129
  410       1456     0.23070
  411       1412     0.20712
  412       1339     0.20866
  413       1376     0.21880
  414       1355     0.20219
  415       1379     0.21475
  416       1331     0.18946
  417       1379     0.19328
  418       1330     0.17597
  419       1360     0.19727
  420       1326     0.18110
  421       1383     0.19954
  422       1324     0.17797
  423       1295     0.16458
  424       1306     0.18022
  425       1289     0.17998
  426       1342     0.16568
  427       1296     0.16924
  428       1282     0.16820
  429       1327     0.16525
  430       1302     0.16679
  431       1270     0.16547
  432       1251     0.15913
  433       1240     0.16333
  434       1271     0.15870
  435       1265     0.16972
  436       1308     0.17091
  437       1288     0.16350
  438       1216     0.15052
  439       1250     0.13974
  440       1272     0.15138
  441       1215     0.15136
  442       1217     0.14133
  443       1173     0.14014
  444       1189     0.15334
  445       1188     0.15032
  446       1145     0.14448
  447       1183     0.14651
  448       1148     0.13975
  449       1207     0.14738
  450       1145     0.14818
  451       1232     0.15322
  452       1166     0.13418
  453       1161     0.14675
  454       1139     0.13143
  455       1158     0.13942
  456       1155     0.12074
  457       1149     0.13570
  458       1156     0.13447
  459       1121     0.13671
  460       1152     0.14202
  461       1116     0.13727
  462       1067     0.10850
  463       1124     0.13825
  464       1068     0.11258
  465       1071     0.11047
  466       1103     0.12723
  467       1111     0.12979
  468       1080     0.12557
  469       1178     0.12239
  470       1119     0.12660
  471       1104     0.10459
  472       1122     0.12043
  473       1059     0.10901
  474       1021     0.10748
  475       1088     0.11140
  476       1116     0.11259
  477       1058     0.11445
  478       1111     0.12018
  479       1062     0.11867
  480       1044     0.11880
  481       1041     0.10918
  482       1042     0.11338
  483       1062     0.10724
  484       1012     0.10024
  485       1048     0.11387
  486       1003     0.09490
  487       1108     0.11814
  488       1039     0.10923
  489       1065     0.10442
  490       1085     0.11381
  491       1008     0.09841
  492       1000     0.10116
  493        996     0.10769
  494       1003     0.09388
  495       1030     0.11616
  496        965     0.09492
  497       1072     0.10187
  498        971     0.09501
  499        980     0.10321
  500       1033     0.09777
  501       1024     0.09566
  502        946     0.08987
  503        987     0.09607
  504        983     0.09272
  505        967     0.08732
  506        994     0.09066
  507        938     0.09257
  508        975     0.09451
  509        928     0.09198
  510        949     0.09172
  511        961     0.10366
  512        912     0.08315
  513        917     0.09356
  514        989     0.09607
  515       1015     0.09522
  516        938     0.08498
  517        952     0.08929
  518        944     0.09378
  519        885     0.07877
  520        945     0.09905
  521        886     0.08163
  522        882     0.07404
  523        901     0.07190
  524        939     0.09035
  525        876     0.07677
  526        876     0.08650
  527        911     0.08354
  528        879     0.07358
  529        903     0.08401
  530        908     0.08900
  531        890     0.08490
  532        878     0.08878
  533        899     0.07772
  534        938     0.07912
  535        912     0.08741
  536        878     0.08562
  537        820     0.07302
  538        889     0.08225
  539        890     0.08253
  540        869     0.07635
  541        844     0.07328
  542        874     0.07549
  543        859     0.06738
  544        896     0.08896
  545        873     0.07382
  546        820     0.06121
  547        876     0.06327
  548        863     0.07873
  549        864     0.06356
  550        870     0.06335
  551        868     0.08010
  552        886     0.06822
  553        866     0.07081
  554        823     0.07060
  555        824     0.07295
  556        904     0.08390
  557        829     0.07575
  558        837     0.07032
  559        856     0.06850
  560        846     0.08118
  561        814     0.06455
  562        798     0.05983
  563        812     0.07430
  564        769     0.06021
  565        749     0.07304
  566        801     0.07722
  567        795     0.06164
  568        781     0.07047
  569        684     0.06069
  570        630     0.06255
  571        610     0.06653
  572        596     0.07293
  573        585     0.06296
  574        550     0.05078
  575        478     0.04547
  576        489     0.04621
  577        479     0.04668
  578        463     0.04557
  579        457     0.05018
  580        457     0.04706
  581        450     0.04783
  582        400     0.04473
  583        411     0.04767
  584        392     0.04538
  585        387     0.04615
  586        325     0.04377
  587        378     0.04605
  588        319     0.03800
  589        328     0.04210
  590        308     0.03749
  591        310     0.03886
  592        298     0.04640
  593        353     0.04249
  594        303     0.04063
  595        282     0.03318
  596        270     0.04131
  597        265     0.03541
  598        289     0.03981
  599        281     0.03718
  600        265     0.03235
  601        254     0.03753
  602        255     0.03343
  603        245     0.03548
  604        222     0.03046
  605        229     0.03387
  606        237     0.03330
  607        230     0.04063
  608        227     0.03699
  609        222     0.02879
  610        205     0.02752
  611        174     0.03419
  612        207     0.02992
  613        196     0.02805
  614        208     0.03143
  615        195     0.03257
  616        194     0.03424
  617        184     0.03809
  618        173     0.02835
  619        167     0.03068
  620        175     0.03381
  621        177     0.03117
  622        160     0.02879
  623        182     0.03069
  624        161     0.02703
  625        137     0.01963
  626        141     0.02213
  627        152     0.02380
  628        155     0.02199
  629        146     0.02494
  630        135     0.02196
  631        144     0.02693
  632        148     0.02532
  633        131     0.02888
  634        134     0.02719
  635        131     0.01987
  636        139     0.02269
  637        131     0.02206
  638        124     0.02518
  639        124     0.03488
  640        104     0.02188
  641        130     0.03238
  642        113     0.01938
  643        108     0.02710
  644        132     0.02603
  645        118     0.02175
  646        115     0.02756
  647        123     0.02616
  648        108     0.02279
  649        122     0.02871
  650        108     0.02195
  651         99     0.01942
  652        106     0.01993
  653         95     0.03011
  654         83     0.01830
  655         90     0.02332
  656         94     0.02378
  657         99     0.01914
  658         77     0.01504
  659        101     0.01651
  660         91     0.02215
  661         73     0.01935
  662        107     0.02279
  663         73     0.01978
  664         96     0.05293
  665         78     0.02759
  666         88     0.02914
  667         84     0.01862
  668         91     0.02465
  669         86     0.01805
  670         70     0.02059
  671         89     0.02312
  672         89     0.01857
  673         80     0.02010
  674         92     0.02375
  675         75     0.02029
  676         57     0.03648
  677         86     0.02343
  678         58     0.01630
  679         71     0.01735
  680         72     0.02301
  681         76     0.02176
  682         81     0.02186
  683         69     0.01866
  684         73     0.02205
  685         65     0.01965
  686         56     0.02058
  687         56     0.01753
  688         68     0.02526
  689         64     0.02008
  690         71     0.01928
  691         59     0.02426
  692         50     0.01989
  693         45     0.01829
  694         53     0.01483
  695         54     0.02212
  696         68     0.01944
  697         69     0.02443
  698         65     0.01999
  699         53     0.02130
  700         51     0.01759
  701         51     0.01682
  702         60     0.01629
  703         54     0.01847
  704         48     0.02034
  705         45     0.02459
  706         44     0.01785
  707         48     0.01461
  708         54     0.01765
  709         42     0.02215
  710         67     0.02107
  711         56     0.02601
  712         31     0.01678
  713         41     0.01821
  714         41     0.01432
  715         42     0.01343
  716         59     0.02869
  717         42     0.02054
  718         42     0.02020
  719         30     0.01629
  720         52     0.01652
  721         45     0.01729
  722         28     0.01256
  723         52     0.01745
  724         39     0.01411
  725         51     0.01841
  726         53     0.02478
  727         33     0.01826
  728         33     0.01366
  729         32     0.01353
  730         42     0.01129
  731         41     0.01402
  732         48     0.02003
  733         48     0.01403
  734         37     0.02118
  735         33     0.01053
  736         51     0.02265
  737         31     0.01534
  738         27     0.01379
  739         53     0.02238
  740         38     0.01427
  741         37     0.01632
  742         43     0.02225
  743         32     0.01404
  744         28     0.01078
  745         31     0.01985
  746         26     0.01257
  747         33     0.01527
  748         27     0.01565
  749         38     0.02232
  750         30     0.01152
  751         23     0.01687
  752         25     0.01611
  753         19     0.00877
  754         27     0.00997
  755         37     0.02081
  756         23     0.00879
  757         28     0.01409
  758         32     0.01096
  759         29     0.01732
  760         20     0.01003
  761         30     0.01026
  762         19     0.01322
  763         29     0.01253
  764         23     0.01485
  765         29     0.01823
  766         17     0.00887
  767         23     0.01436
  768         23     0.01291
  769         15     0.01378
  770         32     0.01834
  771         19     0.00912
  772         27     0.01384
  773         27     0.01571
  774         22     0.01488
  775         24     0.01118
  776         32     0.01337
  777         26     0.01460
  778         28     0.01504
  779         33     0.01904
  780         27     0.01795
  781         25     0.00957
  782         26     0.01352
  783         19     0.01575
  784         25     0.01564
  785         24     0.01673
  786         13     0.00912
  787         24     0.01047
  788         15     0.01339
  789         24     0.02105
  790         22     0.01300
  791         20     0.00889
  792         25     0.01660
  793         16     0.01470
  794         15     0.01105
  795         14     0.01118
  796         16     0.00907
  797         13     0.00780
  798         18     0.01616
  799         16     0.01073
  800         19     0.01087
  801         13     0.01259
  802          9     0.00722
  803         10     0.00962
  804         17     0.01055
  805         21     0.00904
  806         13     0.00931
  807         13     0.00902
  808          5     0.01097
  809         11     0.00720
  810         11     0.01403
  811         13     0.01692
  812         20     0.01163
  813         15     0.00873
  814         20     0.01121
  815         18     0.00822
  816         12     0.00929
  817         11     0.00727
  818         15     0.01069
  819         12     0.01445
  820         14     0.00830
  821         12     0.00749
  822          7     0.00803
  823         15     0.01106
  824         13     0.00836
  825          9     0.00672
  826         10     0.00812
  827         10     0.00739
  828          8     0.00714
  829         11     0.00749
  830         17     0.01156
  831         13     0.00815
  832          7     0.00712
  833         13     0.01142
  834         12     0.01257
  835          7     0.00702
  836         10     0.00747
  837          9     0.01120
  838         17     0.01231
  839          8     0.01331
  840          9     0.00712
  841          3     0.00644
  842          9     0.00684
  843          5     0.00627
  844          5     0.00620
  845         15     0.00806
  846          4     0.00604
  847          8     0.00704
  848          7     0.00655
  849          9     0.00698
  850         12     0.01361
  851          8     0.00801
  852          7     0.00699
  853          9     0.01135
  854          2     0.00578
  855          7     0.00632
  856          5     0.00789
  857         16     0.01192
  858          6     0.00876
  859         10     0.00944
  860          6     0.00962
  861          6     0.01206
  862          7     0.00678
  863          6     0.00668
  864          4     0.00587
  865          4     0.00729
  866          9     0.01129
  867          5     0.01144
  868          5     0.00611
  869          9     0.00739
  870          7     0.00679
  871          4     0.00625
  872          6     0.00645
  873          6     0.01011
  874          5     0.00656
  875          2     0.00571
  876          6     0.01005
  877          5     0.00740
  878         10     0.00741
  879          6     0.00653
  880          5     0.00619
  881          2     0.00616
  882          5     0.00902
  883          3     0.00628
  884          6     0.01154
  885          4     0.00631
  886          4     0.00605
  887          4     0.00668
  888          7     0.01218
  889          7     0.00649
  890          8     0.00725
  891          2     0.00819
  892          5     0.00682
  893          1     0.00566
  894          4     0.00627
  895          5     0.00759
  896          4     0.00874
  897          7     0.00699
  898          4     0.00639
  899          7     0.00636
  900          3     0.00613
  901          2     0.00570
  902          6     0.01414
  903          4     0.00663
  904          2     0.00604
  905          1     0.00594
  906          3     0.00585
  908          5     0.00625
  909          3     0.00589
  910          5     0.00917
  911          3     0.00594
  912          6     0.00637
  914          5     0.00568
  915          6     0.00675
  916          6     0.00751
  917          4     0.00575
  918          2     0.00540
  919          6     0.01145
  920          2     0.00601
  921          6     0.00990
  922          2     0.00558
  923          2     0.00588
  924          8     0.00973
  925          2     0.00604
  926          3     0.00611
  927          5     0.00601
  928          3     0.00576
  929          5     0.00744
  930          2     0.00585
  931          3     0.00574
  933          2     0.00548
  935          2     0.00553
  937          1     0.00632
  938          2     0.00554
  940          2     0.00577
  941          3     0.00571
  942          6     0.00962
  943          2     0.00529
  944          3     0.00620
  945          2     0.00567
  946          3     0.00623
  947          6     0.01442
  948          2     0.00567
  950          2     0.00712
  951          1     0.00563
  953          1     0.00557
  954          1     0.00548
  955          2     0.00533
  956          2     0.00555
  957          2     0.00600
  959          2     0.00550
  960          1     0.00579
  962          1     0.00543
  963          6     0.01231
  964          1     0.00577
  965          1     0.00586
  966          2     0.00550
  967          1     0.00522
  968          2     0.00537
  970          3     0.00557
  971          3     0.00592
  972          2     0.01212
  973          3     0.00740
  974          1     0.00604
  975          1     0.01152
  976          1     0.00540
  979          4     0.00926
  980          2     0.00593
  982          5     0.00645
  984          1     0.00638
  985          3     0.00968
  986          4     0.00676
  987          2     0.00585
  988          1     0.00631
  989          2     0.00558
  991          4     0.00667
  993          4     0.00687
  994          2     0.00828
  995          4     0.03956
  998          2     0.01959
  999          3     0.00642
 1000          3     0.00655
 1001          2     0.00637
 1002          2     0.00616
 1003          2     0.00564
 1004          1     0.00558
 1007          1     0.00575
 1009          2     0.00599
 1010          3     0.00549
 1011          4     0.00664
 1012          1     0.00654
 1013          1     0.00853
 1015          2     0.01275
 1016          1     0.00580
 1017          1     0.00526
 1019          1     0.00536
 1020          3     0.00614
 1022          2     0.00586
 1023          3     0.00590
 1026          1     0.00568
 1027          2     0.00553
 1028          2     0.00537
 1030          1     0.00564
 1031          2     0.00820
 1032          4     0.00585
 1034          2     0.00607
 1035          1     0.00551
 1036          1     0.00549
 1038          1     0.00510
 1040          2     0.00550
 1042          2     0.00541
 1044          1     0.00574
 1045          1     0.00598
 1046          1     0.00592
 1047          1     0.00553
 1048          1     0.00580
 1051          1     0.00521
 1054          3     0.00995
 1055          1     0.00591
 1056          1     0.00642
 1057          1     0.00570
 1059          1     0.00545
 1061          1     0.00493
 1064          2     0.00997
 1066          1     0.00560
 1074          1     0.00566
 1076          1     0.00556
 1078          2     0.00556
 1079          1     0.00507
 1081          1     0.00558
 1087          1     0.00549
 1088          2     0.00577
 1089          1     0.00569
 1090          2     0.00920
 1101          1     0.00619
 1103          1     0.00581
 1104          1     0.00564
 1106          1     0.00543
 1114          1     0.00999
 1115          1     0.00977
 1116          1     0.00556
 1125          1     0.00865
 1127          1     0.00584
 1132          1     0.00576
 1133          1     0.00580
 1139          1     0.00603
 1146          1     0.00835
 1149          1     0.00628
 1154          1     0.00622
 1160          1     0.00574
 1163          2     0.00572
 1164          1     0.00562
 1173          1     0.00577
 1178          1     0.00554
 1185          1     0.00591
 1188          2     0.00583
 1196          1     0.00579
 1197          1     0.00564
 1199          1     0.00530
 1207          1     0.00596
 1210          1     0.00603
 1214          1     0.00611
 1221          1     0.00585
 1227          1     0.00637
 1231          1     0.00594
 1242          1     0.00602
 1246          1     0.00570
 1249          1     0.00571
 1256          1     0.00632
 1274          1     0.00597
 1322          1     0.00535
took 781 iterations
Trial Time:          0.12051
Average Time:        0.12092
Exiting @ tick 4571881506000 because exiting with last active thread context
