
---------- Begin Simulation Statistics ----------
final_tick                               1380300360500                       # Number of ticks from beginning of simulation (restored from checkpoints and never reset)
host_inst_rate                                 104024                       # Simulator instruction rate (inst/s)
host_mem_usage                                 739076                       # Number of bytes of host memory used
host_op_rate                                   104328                       # Simulator op (including micro ops) rate (op/s)
host_seconds                                 13851.68                       # Real time elapsed on the host
host_tick_rate                               99648616                       # Simulator tick rate (ticks/s)
sim_freq                                 1000000000000                       # Frequency of simulated ticks
sim_insts                                  1440910706                       # Number of instructions simulated
sim_ops                                    1445115709                       # Number of ops (including micro ops) simulated
sim_seconds                                  1.380300                       # Number of seconds simulated
sim_ticks                                1380300360500                       # Number of ticks simulated
system.cpu0.branchPred.BTBCorrect                   0                       # Number of correct BTB predictions (this stat may not work properly.
system.cpu0.branchPred.BTBHitPct            88.138481                       # BTB Hit Percentage
system.cpu0.branchPred.BTBHits              169831175                       # Number of BTB hits
system.cpu0.branchPred.BTBLookups           192686750                       # Number of BTB lookups
system.cpu0.branchPred.RASInCorrect                 0                       # Number of incorrect RAS predictions.
system.cpu0.branchPred.condIncorrect         15925046                       # Number of conditional branches incorrect
system.cpu0.branchPred.condPredicted        262739689                       # Number of conditional branches predicted
system.cpu0.branchPred.indirectHits          21699626                       # Number of indirect target hits.
system.cpu0.branchPred.indirectLookups       22301280                       # Number of indirect predictor lookups.
system.cpu0.branchPred.indirectMisses          601654                       # Number of indirect misses.
system.cpu0.branchPred.lookups              332635199                       # Number of BP lookups
system.cpu0.branchPred.usedRAS                      0                       # Number of times the RAS was used to get a target.
system.cpu0.branchPredindirectMispredicted      2148397                       # Number of mispredicted indirect branches.
system.cpu0.commit.amos                       1050466                       # Number of atomic instructions committed
system.cpu0.commit.branchMispredicts          9563521                       # The number of times a branch was mispredicted
system.cpu0.commit.branches                 313655221                       # Number of branches committed
system.cpu0.commit.bw_lim_events             30799289                       # number cycles where commit BW limit reached
system.cpu0.commit.commitNonSpecStalls        3160618                       # The number of times commit has been forced to stall to communicate backwards
system.cpu0.commit.commitSquashedInsts       57993600                       # The number of squashed insts skipped by commit
system.cpu0.commit.committedInsts          1250519375                       # Number of instructions committed
system.cpu0.commit.committedOps            1251573121                       # Number of ops (including micro ops) committed
system.cpu0.commit.committed_per_cycle::samples   2001010851                       # Number of insts commited each cycle
system.cpu0.commit.committed_per_cycle::mean     0.625470                       # Number of insts commited each cycle
system.cpu0.commit.committed_per_cycle::stdev     1.371526                       # Number of insts commited each cycle
system.cpu0.commit.committed_per_cycle::underflows            0      0.00%      0.00% # Number of insts commited each cycle
system.cpu0.commit.committed_per_cycle::0   1392462365     69.59%     69.59% # Number of insts commited each cycle
system.cpu0.commit.committed_per_cycle::1    363619517     18.17%     87.76% # Number of insts commited each cycle
system.cpu0.commit.committed_per_cycle::2     84773021      4.24%     92.00% # Number of insts commited each cycle
system.cpu0.commit.committed_per_cycle::3     82670629      4.13%     96.13% # Number of insts commited each cycle
system.cpu0.commit.committed_per_cycle::4     26583519      1.33%     97.46% # Number of insts commited each cycle
system.cpu0.commit.committed_per_cycle::5      9140571      0.46%     97.91% # Number of insts commited each cycle
system.cpu0.commit.committed_per_cycle::6      4769148      0.24%     98.15% # Number of insts commited each cycle
system.cpu0.commit.committed_per_cycle::7      6192792      0.31%     98.46% # Number of insts commited each cycle
system.cpu0.commit.committed_per_cycle::8     30799289      1.54%    100.00% # Number of insts commited each cycle
system.cpu0.commit.committed_per_cycle::overflows            0      0.00%    100.00% # Number of insts commited each cycle
system.cpu0.commit.committed_per_cycle::min_value            0                       # Number of insts commited each cycle
system.cpu0.commit.committed_per_cycle::max_value            8                       # Number of insts commited each cycle
system.cpu0.commit.committed_per_cycle::total   2001010851                       # Number of insts commited each cycle
system.cpu0.commit.fp_insts                        50                       # Number of committed floating point instructions.
system.cpu0.commit.function_calls            24112895                       # Number of function calls committed.
system.cpu0.commit.int_insts               1209819386                       # Number of committed integer instructions.
system.cpu0.commit.loads                    388697517                       # Number of loads committed
system.cpu0.commit.membars                    2104065                       # Number of memory barriers committed
system.cpu0.commit.op_class_0::No_OpClass      2104071      0.17%      0.17% # Class of committed instruction
system.cpu0.commit.op_class_0::IntAlu       699531409     55.89%     56.06% # Class of committed instruction
system.cpu0.commit.op_class_0::IntMult       11833128      0.95%     57.01% # Class of committed instruction
system.cpu0.commit.op_class_0::IntDiv         2099835      0.17%     57.17% # Class of committed instruction
system.cpu0.commit.op_class_0::FloatAdd             0      0.00%     57.17% # Class of committed instruction
system.cpu0.commit.op_class_0::FloatCmp             4      0.00%     57.17% # Class of committed instruction
system.cpu0.commit.op_class_0::FloatCvt            12      0.00%     57.17% # Class of committed instruction
system.cpu0.commit.op_class_0::FloatMult            0      0.00%     57.17% # Class of committed instruction
system.cpu0.commit.op_class_0::FloatMultAcc            0      0.00%     57.17% # Class of committed instruction
system.cpu0.commit.op_class_0::FloatDiv             2      0.00%     57.17% # Class of committed instruction
system.cpu0.commit.op_class_0::FloatMisc            4      0.00%     57.17% # Class of committed instruction
system.cpu0.commit.op_class_0::FloatSqrt            0      0.00%     57.17% # Class of committed instruction
system.cpu0.commit.op_class_0::SimdAdd              0      0.00%     57.17% # Class of committed instruction
system.cpu0.commit.op_class_0::SimdAddAcc            0      0.00%     57.17% # Class of committed instruction
system.cpu0.commit.op_class_0::SimdAlu              0      0.00%     57.17% # Class of committed instruction
system.cpu0.commit.op_class_0::SimdCmp              0      0.00%     57.17% # Class of committed instruction
system.cpu0.commit.op_class_0::SimdCvt              0      0.00%     57.17% # Class of committed instruction
system.cpu0.commit.op_class_0::SimdMisc             0      0.00%     57.17% # Class of committed instruction
system.cpu0.commit.op_class_0::SimdMult             0      0.00%     57.17% # Class of committed instruction
system.cpu0.commit.op_class_0::SimdMultAcc            0      0.00%     57.17% # Class of committed instruction
system.cpu0.commit.op_class_0::SimdShift            0      0.00%     57.17% # Class of committed instruction
system.cpu0.commit.op_class_0::SimdShiftAcc            0      0.00%     57.17% # Class of committed instruction
system.cpu0.commit.op_class_0::SimdDiv              0      0.00%     57.17% # Class of committed instruction
system.cpu0.commit.op_class_0::SimdSqrt             0      0.00%     57.17% # Class of committed instruction
system.cpu0.commit.op_class_0::SimdFloatAdd            0      0.00%     57.17% # Class of committed instruction
system.cpu0.commit.op_class_0::SimdFloatAlu            0      0.00%     57.17% # Class of committed instruction
system.cpu0.commit.op_class_0::SimdFloatCmp            0      0.00%     57.17% # Class of committed instruction
system.cpu0.commit.op_class_0::SimdFloatCvt            0      0.00%     57.17% # Class of committed instruction
system.cpu0.commit.op_class_0::SimdFloatDiv            0      0.00%     57.17% # Class of committed instruction
system.cpu0.commit.op_class_0::SimdFloatMisc            0      0.00%     57.17% # Class of committed instruction
system.cpu0.commit.op_class_0::SimdFloatMult            0      0.00%     57.17% # Class of committed instruction
system.cpu0.commit.op_class_0::SimdFloatMultAcc            0      0.00%     57.17% # Class of committed instruction
system.cpu0.commit.op_class_0::SimdFloatSqrt            0      0.00%     57.17% # Class of committed instruction
system.cpu0.commit.op_class_0::SimdReduceAdd            0      0.00%     57.17% # Class of committed instruction
system.cpu0.commit.op_class_0::SimdReduceAlu            0      0.00%     57.17% # Class of committed instruction
system.cpu0.commit.op_class_0::SimdReduceCmp            0      0.00%     57.17% # Class of committed instruction
system.cpu0.commit.op_class_0::SimdFloatReduceAdd            0      0.00%     57.17% # Class of committed instruction
system.cpu0.commit.op_class_0::SimdFloatReduceCmp            0      0.00%     57.17% # Class of committed instruction
system.cpu0.commit.op_class_0::SimdAes              0      0.00%     57.17% # Class of committed instruction
system.cpu0.commit.op_class_0::SimdAesMix            0      0.00%     57.17% # Class of committed instruction
system.cpu0.commit.op_class_0::SimdSha1Hash            0      0.00%     57.17% # Class of committed instruction
system.cpu0.commit.op_class_0::SimdSha1Hash2            0      0.00%     57.17% # Class of committed instruction
system.cpu0.commit.op_class_0::SimdSha256Hash            0      0.00%     57.17% # Class of committed instruction
system.cpu0.commit.op_class_0::SimdSha256Hash2            0      0.00%     57.17% # Class of committed instruction
system.cpu0.commit.op_class_0::SimdShaSigma2            0      0.00%     57.17% # Class of committed instruction
system.cpu0.commit.op_class_0::SimdShaSigma3            0      0.00%     57.17% # Class of committed instruction
system.cpu0.commit.op_class_0::SimdPredAlu            0      0.00%     57.17% # Class of committed instruction
system.cpu0.commit.op_class_0::MemRead      389747975     31.14%     88.31% # Class of committed instruction
system.cpu0.commit.op_class_0::MemWrite     146256653     11.69%    100.00% # Class of committed instruction
system.cpu0.commit.op_class_0::FloatMemRead            8      0.00%    100.00% # Class of committed instruction
system.cpu0.commit.op_class_0::FloatMemWrite           20      0.00%    100.00% # Class of committed instruction
system.cpu0.commit.op_class_0::IprAccess            0      0.00%    100.00% # Class of committed instruction
system.cpu0.commit.op_class_0::InstPrefetch            0      0.00%    100.00% # Class of committed instruction
system.cpu0.commit.op_class_0::total       1251573121                       # Class of committed instruction
system.cpu0.commit.refs                     536004656                       # Number of memory references committed
system.cpu0.commit.swp_count                        0                       # Number of s/w prefetches committed
system.cpu0.commit.vec_insts                        0                       # Number of committed Vector instructions.
system.cpu0.committedInsts                 1250519375                       # Number of Instructions Simulated
system.cpu0.committedOps                   1251573121                       # Number of Ops (including micro ops) Simulated
system.cpu0.cpi                              2.200091                       # CPI: Cycles Per Instruction
system.cpu0.cpi_total                        2.200091                       # CPI: Total CPI of All Threads
system.cpu0.decode.BlockedCycles            259546514                       # Number of cycles decode is blocked
system.cpu0.decode.BranchMispred              6384426                       # Number of times decode detected a branch misprediction
system.cpu0.decode.BranchResolved           168055042                       # Number of times decode resolved a branch
system.cpu0.decode.DecodedInsts            1329541387                       # Number of instructions handled by decode
system.cpu0.decode.IdleCycles               819714694                       # Number of cycles decode is idle
system.cpu0.decode.RunCycles                923583693                       # Number of cycles decode is running
system.cpu0.decode.SquashCycles               9569629                       # Number of cycles decode is squashing
system.cpu0.decode.SquashedInsts             13974239                       # Number of squashed instructions handled by decode
system.cpu0.decode.UnblockCycles              3544830                       # Number of cycles decode is unblocking
system.cpu0.dtb.accesses                            0                       # DTB accesses
system.cpu0.dtb.hits                                0                       # DTB hits
system.cpu0.dtb.misses                              0                       # DTB misses
system.cpu0.dtb.read_accesses                       0                       # DTB read accesses
system.cpu0.dtb.read_hits                           0                       # DTB read hits
system.cpu0.dtb.read_misses                         0                       # DTB read misses
system.cpu0.dtb.write_accesses                      0                       # DTB write accesses
system.cpu0.dtb.write_hits                          0                       # DTB write hits
system.cpu0.dtb.write_misses                        0                       # DTB write misses
system.cpu0.fetch.Branches                  332635199                       # Number of branches that fetch encountered
system.cpu0.fetch.CacheLines                236144462                       # Number of cache lines fetched
system.cpu0.fetch.Cycles                   1198983987                       # Number of cycles fetch has run and was not squashing or blocked
system.cpu0.fetch.IcacheSquashes              5896224                       # Number of outstanding Icache misses that were squashed
system.cpu0.fetch.IcacheWaitRetryStallCycles           80                       # Number of stall cycles due to full MSHR
system.cpu0.fetch.Insts                    1359262683                       # Number of instructions fetch has processed
system.cpu0.fetch.MiscStallCycles                   7                       # Number of cycles fetch has spent waiting on interrupts, or bad addresses, or out of MSHRs
system.cpu0.fetch.SquashCycles               31862308                       # Number of cycles fetch has spent squashing
system.cpu0.fetch.branchRate                 0.120903                       # Number of branch fetches per cycle
system.cpu0.fetch.icacheStallCycles         801044132                       # Number of cycles fetch is stalled on an Icache miss
system.cpu0.fetch.predictedBranches         191530801                       # Number of branches that fetch has predicted taken
system.cpu0.fetch.rate                       0.494052                       # Number of inst fetches per cycle
system.cpu0.fetch.rateDist::samples        2015959360                       # Number of instructions fetched each cycle (Total)
system.cpu0.fetch.rateDist::mean             0.675481                       # Number of instructions fetched each cycle (Total)
system.cpu0.fetch.rateDist::stdev            0.913500                       # Number of instructions fetched each cycle (Total)
system.cpu0.fetch.rateDist::underflows              0      0.00%      0.00% # Number of instructions fetched each cycle (Total)
system.cpu0.fetch.rateDist::0              1058159342     52.49%     52.49% # Number of instructions fetched each cycle (Total)
system.cpu0.fetch.rateDist::1               709643862     35.20%     87.69% # Number of instructions fetched each cycle (Total)
system.cpu0.fetch.rateDist::2               127284505      6.31%     94.00% # Number of instructions fetched each cycle (Total)
system.cpu0.fetch.rateDist::3                98294318      4.88%     98.88% # Number of instructions fetched each cycle (Total)
system.cpu0.fetch.rateDist::4                17129261      0.85%     99.73% # Number of instructions fetched each cycle (Total)
system.cpu0.fetch.rateDist::5                 2768633      0.14%     99.87% # Number of instructions fetched each cycle (Total)
system.cpu0.fetch.rateDist::6                  574247      0.03%     99.90% # Number of instructions fetched each cycle (Total)
system.cpu0.fetch.rateDist::7                     426      0.00%     99.90% # Number of instructions fetched each cycle (Total)
system.cpu0.fetch.rateDist::8                 2104766      0.10%    100.00% # Number of instructions fetched each cycle (Total)
system.cpu0.fetch.rateDist::overflows               0      0.00%    100.00% # Number of instructions fetched each cycle (Total)
system.cpu0.fetch.rateDist::min_value               0                       # Number of instructions fetched each cycle (Total)
system.cpu0.fetch.rateDist::max_value               8                       # Number of instructions fetched each cycle (Total)
system.cpu0.fetch.rateDist::total          2015959360                       # Number of instructions fetched each cycle (Total)
system.cpu0.fp_regfile_reads                       44                       # number of floating regfile reads
system.cpu0.fp_regfile_writes                      23                       # number of floating regfile writes
system.cpu0.idleCycles                      735296641                       # Total number of cycles that the CPU has spent unscheduled due to idling
system.cpu0.iew.branchMispredicts             9635759                       # Number of branch mispredicts detected at execute
system.cpu0.iew.exec_branches               320667129                       # Number of branches executed
system.cpu0.iew.exec_nop                            0                       # number of nop insts executed
system.cpu0.iew.exec_rate                    0.469978                       # Inst execution rate
system.cpu0.iew.exec_refs                   560882762                       # number of memory reference insts executed
system.cpu0.iew.exec_stores                 150667046                       # Number of stores executed
system.cpu0.iew.exec_swp                            0                       # number of swp insts executed
system.cpu0.iew.iewBlockCycles              205989053                       # Number of cycles IEW is blocking
system.cpu0.iew.iewDispLoadInsts            412840365                       # Number of dispatched load instructions
system.cpu0.iew.iewDispNonSpecInsts           1887520                       # Number of dispatched non-speculative instructions
system.cpu0.iew.iewDispSquashedInsts          5238695                       # Number of squashed instructions skipped by dispatch
system.cpu0.iew.iewDispStoreInsts           152691156                       # Number of dispatched store instructions
system.cpu0.iew.iewDispatchedInsts         1309533588                       # Number of instructions dispatched to IQ
system.cpu0.iew.iewExecLoadInsts            410215716                       # Number of load instructions executed
system.cpu0.iew.iewExecSquashedInsts          4847266                       # Number of squashed instructions skipped in execute
system.cpu0.iew.iewExecutedInsts           1293030452                       # Number of executed instructions
system.cpu0.iew.iewIQFullEvents               1055719                       # Number of times the IQ has become full, causing a stall
system.cpu0.iew.iewIdleCycles                       0                       # Number of cycles IEW is idle
system.cpu0.iew.iewLSQFullEvents              4875608                       # Number of times the LSQ has become full, causing a stall
system.cpu0.iew.iewSquashCycles               9569629                       # Number of cycles IEW is squashing
system.cpu0.iew.iewUnblockCycles              7051893                       # Number of cycles IEW is unblocking
system.cpu0.iew.lsq.thread0.blockedLoads            0                       # Number of blocked loads due to partial load-store forwarding
system.cpu0.iew.lsq.thread0.cacheBlocked       154325                       # Number of times an access to memory failed due to the cache being blocked
system.cpu0.iew.lsq.thread0.forwLoads        21976591                       # Number of loads that had data forwarded from stores
system.cpu0.iew.lsq.thread0.ignoredResponses        79851                       # Number of memory responses ignored because the instruction is squashed
system.cpu0.iew.lsq.thread0.invAddrLoads            0                       # Number of loads ignored due to an invalid address
system.cpu0.iew.lsq.thread0.invAddrSwpfs            0                       # Number of software prefetches ignored due to an invalid address
system.cpu0.iew.lsq.thread0.memOrderViolation         4968                       # Number of memory ordering violations
system.cpu0.iew.lsq.thread0.rescheduledLoads      4843147                       # Number of loads that were rescheduled
system.cpu0.iew.lsq.thread0.squashedLoads     24142848                       # Number of loads squashed
system.cpu0.iew.lsq.thread0.squashedStores      5384017                       # Number of stores squashed
system.cpu0.iew.memOrderViolationEvents          4968                       # Number of memory order violations
system.cpu0.iew.predictedNotTakenIncorrect       399506                       # Number of branches that were predicted not taken incorrectly
system.cpu0.iew.predictedTakenIncorrect       9236253                       # Number of branches that were predicted taken incorrectly
system.cpu0.iew.wb_consumers                591712332                       # num instructions consuming a value
system.cpu0.iew.wb_count                   1284836995                       # cumulative count of insts written-back
system.cpu0.iew.wb_fanout                    0.839882                       # average fanout of values written-back
system.cpu0.iew.wb_producers                496968436                       # num instructions producing a value
system.cpu0.iew.wb_rate                      0.467000                       # insts written-back per cycle
system.cpu0.iew.wb_sent                    1284901205                       # cumulative count of insts sent to commit
system.cpu0.int_regfile_reads              1587089772                       # number of integer regfile reads
system.cpu0.int_regfile_writes              823697738                       # number of integer regfile writes
system.cpu0.ipc                              0.454527                       # IPC: Instructions Per Cycle
system.cpu0.ipc_total                        0.454527                       # IPC: Total IPC of All Threads
system.cpu0.iq.FU_type_0::No_OpClass          2106099      0.16%      0.16% # Type of FU issued
system.cpu0.iq.FU_type_0::IntAlu            719059136     55.40%     55.56% # Type of FU issued
system.cpu0.iq.FU_type_0::IntMult            11841824      0.91%     56.48% # Type of FU issued
system.cpu0.iq.FU_type_0::IntDiv              2100390      0.16%     56.64% # Type of FU issued
system.cpu0.iq.FU_type_0::FloatAdd                  0      0.00%     56.64% # Type of FU issued
system.cpu0.iq.FU_type_0::FloatCmp                  4      0.00%     56.64% # Type of FU issued
system.cpu0.iq.FU_type_0::FloatCvt                 12      0.00%     56.64% # Type of FU issued
system.cpu0.iq.FU_type_0::FloatMult                 0      0.00%     56.64% # Type of FU issued
system.cpu0.iq.FU_type_0::FloatMultAcc              0      0.00%     56.64% # Type of FU issued
system.cpu0.iq.FU_type_0::FloatDiv                  2      0.00%     56.64% # Type of FU issued
system.cpu0.iq.FU_type_0::FloatMisc                 4      0.00%     56.64% # Type of FU issued
system.cpu0.iq.FU_type_0::FloatSqrt                 0      0.00%     56.64% # Type of FU issued
system.cpu0.iq.FU_type_0::SimdAdd                   0      0.00%     56.64% # Type of FU issued
system.cpu0.iq.FU_type_0::SimdAddAcc                0      0.00%     56.64% # Type of FU issued
system.cpu0.iq.FU_type_0::SimdAlu                   0      0.00%     56.64% # Type of FU issued
system.cpu0.iq.FU_type_0::SimdCmp                   0      0.00%     56.64% # Type of FU issued
system.cpu0.iq.FU_type_0::SimdCvt                   0      0.00%     56.64% # Type of FU issued
system.cpu0.iq.FU_type_0::SimdMisc                  0      0.00%     56.64% # Type of FU issued
system.cpu0.iq.FU_type_0::SimdMult                  0      0.00%     56.64% # Type of FU issued
system.cpu0.iq.FU_type_0::SimdMultAcc               0      0.00%     56.64% # Type of FU issued
system.cpu0.iq.FU_type_0::SimdShift                 0      0.00%     56.64% # Type of FU issued
system.cpu0.iq.FU_type_0::SimdShiftAcc              0      0.00%     56.64% # Type of FU issued
system.cpu0.iq.FU_type_0::SimdDiv                   0      0.00%     56.64% # Type of FU issued
system.cpu0.iq.FU_type_0::SimdSqrt                  0      0.00%     56.64% # Type of FU issued
system.cpu0.iq.FU_type_0::SimdFloatAdd              0      0.00%     56.64% # Type of FU issued
system.cpu0.iq.FU_type_0::SimdFloatAlu              0      0.00%     56.64% # Type of FU issued
system.cpu0.iq.FU_type_0::SimdFloatCmp              0      0.00%     56.64% # Type of FU issued
system.cpu0.iq.FU_type_0::SimdFloatCvt              0      0.00%     56.64% # Type of FU issued
system.cpu0.iq.FU_type_0::SimdFloatDiv              0      0.00%     56.64% # Type of FU issued
system.cpu0.iq.FU_type_0::SimdFloatMisc             0      0.00%     56.64% # Type of FU issued
system.cpu0.iq.FU_type_0::SimdFloatMult             0      0.00%     56.64% # Type of FU issued
system.cpu0.iq.FU_type_0::SimdFloatMultAcc            0      0.00%     56.64% # Type of FU issued
system.cpu0.iq.FU_type_0::SimdFloatSqrt             0      0.00%     56.64% # Type of FU issued
system.cpu0.iq.FU_type_0::SimdReduceAdd             0      0.00%     56.64% # Type of FU issued
system.cpu0.iq.FU_type_0::SimdReduceAlu             0      0.00%     56.64% # Type of FU issued
system.cpu0.iq.FU_type_0::SimdReduceCmp             0      0.00%     56.64% # Type of FU issued
system.cpu0.iq.FU_type_0::SimdFloatReduceAdd            0      0.00%     56.64% # Type of FU issued
system.cpu0.iq.FU_type_0::SimdFloatReduceCmp            0      0.00%     56.64% # Type of FU issued
system.cpu0.iq.FU_type_0::SimdAes                   0      0.00%     56.64% # Type of FU issued
system.cpu0.iq.FU_type_0::SimdAesMix                0      0.00%     56.64% # Type of FU issued
system.cpu0.iq.FU_type_0::SimdSha1Hash              0      0.00%     56.64% # Type of FU issued
system.cpu0.iq.FU_type_0::SimdSha1Hash2             0      0.00%     56.64% # Type of FU issued
system.cpu0.iq.FU_type_0::SimdSha256Hash            0      0.00%     56.64% # Type of FU issued
system.cpu0.iq.FU_type_0::SimdSha256Hash2            0      0.00%     56.64% # Type of FU issued
system.cpu0.iq.FU_type_0::SimdShaSigma2             0      0.00%     56.64% # Type of FU issued
system.cpu0.iq.FU_type_0::SimdShaSigma3             0      0.00%     56.64% # Type of FU issued
system.cpu0.iq.FU_type_0::SimdPredAlu               0      0.00%     56.64% # Type of FU issued
system.cpu0.iq.FU_type_0::MemRead           413064943     31.83%     88.47% # Type of FU issued
system.cpu0.iq.FU_type_0::MemWrite          149705275     11.53%    100.00% # Type of FU issued
system.cpu0.iq.FU_type_0::FloatMemRead              9      0.00%    100.00% # Type of FU issued
system.cpu0.iq.FU_type_0::FloatMemWrite            20      0.00%    100.00% # Type of FU issued
system.cpu0.iq.FU_type_0::IprAccess                 0      0.00%    100.00% # Type of FU issued
system.cpu0.iq.FU_type_0::InstPrefetch              0      0.00%    100.00% # Type of FU issued
system.cpu0.iq.FU_type_0::total            1297877718                       # Type of FU issued
system.cpu0.iq.fp_alu_accesses                     55                       # Number of floating point alu accesses
system.cpu0.iq.fp_inst_queue_reads                106                       # Number of floating instruction queue reads
system.cpu0.iq.fp_inst_queue_wakeup_accesses           51                       # Number of floating instruction queue wakeup accesses
system.cpu0.iq.fp_inst_queue_writes                52                       # Number of floating instruction queue writes
system.cpu0.iq.fu_busy_cnt                    1601657                       # FU busy when requested
system.cpu0.iq.fu_busy_rate                  0.001234                       # FU busy rate (busy events/executed inst)
system.cpu0.iq.fu_full::No_OpClass                  0      0.00%      0.00% # attempts to use FU when none available
system.cpu0.iq.fu_full::IntAlu                 331905     20.72%     20.72% # attempts to use FU when none available
system.cpu0.iq.fu_full::IntMult                     4      0.00%     20.72% # attempts to use FU when none available
system.cpu0.iq.fu_full::IntDiv                      0      0.00%     20.72% # attempts to use FU when none available
system.cpu0.iq.fu_full::FloatAdd                    0      0.00%     20.72% # attempts to use FU when none available
system.cpu0.iq.fu_full::FloatCmp                    0      0.00%     20.72% # attempts to use FU when none available
system.cpu0.iq.fu_full::FloatCvt                    0      0.00%     20.72% # attempts to use FU when none available
system.cpu0.iq.fu_full::FloatMult                   0      0.00%     20.72% # attempts to use FU when none available
system.cpu0.iq.fu_full::FloatMultAcc                0      0.00%     20.72% # attempts to use FU when none available
system.cpu0.iq.fu_full::FloatDiv                    0      0.00%     20.72% # attempts to use FU when none available
system.cpu0.iq.fu_full::FloatMisc                   0      0.00%     20.72% # attempts to use FU when none available
system.cpu0.iq.fu_full::FloatSqrt                   0      0.00%     20.72% # attempts to use FU when none available
system.cpu0.iq.fu_full::SimdAdd                     0      0.00%     20.72% # attempts to use FU when none available
system.cpu0.iq.fu_full::SimdAddAcc                  0      0.00%     20.72% # attempts to use FU when none available
system.cpu0.iq.fu_full::SimdAlu                     0      0.00%     20.72% # attempts to use FU when none available
system.cpu0.iq.fu_full::SimdCmp                     0      0.00%     20.72% # attempts to use FU when none available
system.cpu0.iq.fu_full::SimdCvt                     0      0.00%     20.72% # attempts to use FU when none available
system.cpu0.iq.fu_full::SimdMisc                    0      0.00%     20.72% # attempts to use FU when none available
system.cpu0.iq.fu_full::SimdMult                    0      0.00%     20.72% # attempts to use FU when none available
system.cpu0.iq.fu_full::SimdMultAcc                 0      0.00%     20.72% # attempts to use FU when none available
system.cpu0.iq.fu_full::SimdShift                   0      0.00%     20.72% # attempts to use FU when none available
system.cpu0.iq.fu_full::SimdShiftAcc                0      0.00%     20.72% # attempts to use FU when none available
system.cpu0.iq.fu_full::SimdDiv                     0      0.00%     20.72% # attempts to use FU when none available
system.cpu0.iq.fu_full::SimdSqrt                    0      0.00%     20.72% # attempts to use FU when none available
system.cpu0.iq.fu_full::SimdFloatAdd                0      0.00%     20.72% # attempts to use FU when none available
system.cpu0.iq.fu_full::SimdFloatAlu                0      0.00%     20.72% # attempts to use FU when none available
system.cpu0.iq.fu_full::SimdFloatCmp                0      0.00%     20.72% # attempts to use FU when none available
system.cpu0.iq.fu_full::SimdFloatCvt                0      0.00%     20.72% # attempts to use FU when none available
system.cpu0.iq.fu_full::SimdFloatDiv                0      0.00%     20.72% # attempts to use FU when none available
system.cpu0.iq.fu_full::SimdFloatMisc               0      0.00%     20.72% # attempts to use FU when none available
system.cpu0.iq.fu_full::SimdFloatMult               0      0.00%     20.72% # attempts to use FU when none available
system.cpu0.iq.fu_full::SimdFloatMultAcc            0      0.00%     20.72% # attempts to use FU when none available
system.cpu0.iq.fu_full::SimdFloatSqrt               0      0.00%     20.72% # attempts to use FU when none available
system.cpu0.iq.fu_full::SimdReduceAdd               0      0.00%     20.72% # attempts to use FU when none available
system.cpu0.iq.fu_full::SimdReduceAlu               0      0.00%     20.72% # attempts to use FU when none available
system.cpu0.iq.fu_full::SimdReduceCmp               0      0.00%     20.72% # attempts to use FU when none available
system.cpu0.iq.fu_full::SimdFloatReduceAdd            0      0.00%     20.72% # attempts to use FU when none available
system.cpu0.iq.fu_full::SimdFloatReduceCmp            0      0.00%     20.72% # attempts to use FU when none available
system.cpu0.iq.fu_full::SimdAes                     0      0.00%     20.72% # attempts to use FU when none available
system.cpu0.iq.fu_full::SimdAesMix                  0      0.00%     20.72% # attempts to use FU when none available
system.cpu0.iq.fu_full::SimdSha1Hash                0      0.00%     20.72% # attempts to use FU when none available
system.cpu0.iq.fu_full::SimdSha1Hash2               0      0.00%     20.72% # attempts to use FU when none available
system.cpu0.iq.fu_full::SimdSha256Hash              0      0.00%     20.72% # attempts to use FU when none available
system.cpu0.iq.fu_full::SimdSha256Hash2             0      0.00%     20.72% # attempts to use FU when none available
system.cpu0.iq.fu_full::SimdShaSigma2               0      0.00%     20.72% # attempts to use FU when none available
system.cpu0.iq.fu_full::SimdShaSigma3               0      0.00%     20.72% # attempts to use FU when none available
system.cpu0.iq.fu_full::SimdPredAlu                 0      0.00%     20.72% # attempts to use FU when none available
system.cpu0.iq.fu_full::MemRead               1021634     63.79%     84.51% # attempts to use FU when none available
system.cpu0.iq.fu_full::MemWrite               248110     15.49%    100.00% # attempts to use FU when none available
system.cpu0.iq.fu_full::FloatMemRead                0      0.00%    100.00% # attempts to use FU when none available
system.cpu0.iq.fu_full::FloatMemWrite               4      0.00%    100.00% # attempts to use FU when none available
system.cpu0.iq.fu_full::IprAccess                   0      0.00%    100.00% # attempts to use FU when none available
system.cpu0.iq.fu_full::InstPrefetch                0      0.00%    100.00% # attempts to use FU when none available
system.cpu0.iq.int_alu_accesses            1297373221                       # Number of integer alu accesses
system.cpu0.iq.int_inst_queue_reads        4613442488                       # Number of integer instruction queue reads
system.cpu0.iq.int_inst_queue_wakeup_accesses   1284836944                       # Number of integer instruction queue wakeup accesses
system.cpu0.iq.int_inst_queue_writes       1367498690                       # Number of integer instruction queue writes
system.cpu0.iq.iqInstsAdded                1303880087                       # Number of instructions added to the IQ (excludes non-spec)
system.cpu0.iq.iqInstsIssued               1297877718                       # Number of instructions issued
system.cpu0.iq.iqNonSpecInstsAdded            5653501                       # Number of non-speculative instructions added to the IQ
system.cpu0.iq.iqSquashedInstsExamined       57960464                       # Number of squashed instructions iterated over during squash; mainly for profiling
system.cpu0.iq.iqSquashedInstsIssued           126141                       # Number of squashed instructions issued
system.cpu0.iq.iqSquashedNonSpecRemoved       2492883                       # Number of squashed non-spec instructions that were removed
system.cpu0.iq.iqSquashedOperandsExamined     24049509                       # Number of squashed operands that are examined and possibly removed from graph
system.cpu0.iq.issued_per_cycle::samples   2015959360                       # Number of insts issued each cycle
system.cpu0.iq.issued_per_cycle::mean        0.643802                       # Number of insts issued each cycle
system.cpu0.iq.issued_per_cycle::stdev       0.855334                       # Number of insts issued each cycle
system.cpu0.iq.issued_per_cycle::underflows            0      0.00%      0.00% # Number of insts issued each cycle
system.cpu0.iq.issued_per_cycle::0         1107344612     54.93%     54.93% # Number of insts issued each cycle
system.cpu0.iq.issued_per_cycle::1          616748081     30.59%     85.52% # Number of insts issued each cycle
system.cpu0.iq.issued_per_cycle::2          208067999     10.32%     95.84% # Number of insts issued each cycle
system.cpu0.iq.issued_per_cycle::3           73952934      3.67%     99.51% # Number of insts issued each cycle
system.cpu0.iq.issued_per_cycle::4            7776925      0.39%     99.90% # Number of insts issued each cycle
system.cpu0.iq.issued_per_cycle::5             859219      0.04%     99.94% # Number of insts issued each cycle
system.cpu0.iq.issued_per_cycle::6             853052      0.04%     99.98% # Number of insts issued each cycle
system.cpu0.iq.issued_per_cycle::7             239574      0.01%     99.99% # Number of insts issued each cycle
system.cpu0.iq.issued_per_cycle::8             116964      0.01%    100.00% # Number of insts issued each cycle
system.cpu0.iq.issued_per_cycle::overflows            0      0.00%    100.00% # Number of insts issued each cycle
system.cpu0.iq.issued_per_cycle::min_value            0                       # Number of insts issued each cycle
system.cpu0.iq.issued_per_cycle::max_value            8                       # Number of insts issued each cycle
system.cpu0.iq.issued_per_cycle::total     2015959360                       # Number of insts issued each cycle
system.cpu0.iq.rate                          0.471740                       # Inst issue rate
system.cpu0.iq.vec_alu_accesses                     0                       # Number of vector alu accesses
system.cpu0.iq.vec_inst_queue_reads                 0                       # Number of vector instruction queue reads
system.cpu0.iq.vec_inst_queue_wakeup_accesses            0                       # Number of vector instruction queue wakeup accesses
system.cpu0.iq.vec_inst_queue_writes                0                       # Number of vector instruction queue writes
system.cpu0.itb.accesses                            0                       # DTB accesses
system.cpu0.itb.hits                                0                       # DTB hits
system.cpu0.itb.misses                              0                       # DTB misses
system.cpu0.itb.read_accesses                       0                       # DTB read accesses
system.cpu0.itb.read_hits                           0                       # DTB read hits
system.cpu0.itb.read_misses                         0                       # DTB read misses
system.cpu0.itb.write_accesses                      0                       # DTB write accesses
system.cpu0.itb.write_hits                          0                       # DTB write hits
system.cpu0.itb.write_misses                        0                       # DTB write misses
system.cpu0.memDep0.conflictingLoads         14082063                       # Number of conflicting loads.
system.cpu0.memDep0.conflictingStores         1685380                       # Number of conflicting stores.
system.cpu0.memDep0.insertedLoads           412840365                       # Number of loads inserted to the mem dependence unit.
system.cpu0.memDep0.insertedStores          152691156                       # Number of stores inserted to the mem dependence unit.
system.cpu0.misc_regfile_reads                   2061                       # number of misc regfile reads
system.cpu0.misc_regfile_writes                    22                       # number of misc regfile writes
system.cpu0.numCycles                      2751256001                       # number of cpu cycles simulated
system.cpu0.numWorkItemsCompleted                   0                       # number of work items this cpu completed
system.cpu0.numWorkItemsStarted                     0                       # number of work items this cpu started
system.cpu0.quiesceCycles                     9344722                       # Total number of cycles that CPU has spent quiesced or waiting for an interrupt
system.cpu0.rename.BlockCycles              221128498                       # Number of cycles rename is blocking
system.cpu0.rename.CommittedMaps            800544307                       # Number of HB maps that are committed
system.cpu0.rename.IQFullEvents               7327019                       # Number of times rename has blocked due to IQ full
system.cpu0.rename.IdleCycles               831007781                       # Number of cycles rename is idle
system.cpu0.rename.LQFullEvents              10239971                       # Number of times rename has blocked due to LQ full
system.cpu0.rename.ROBFullEvents                15908                       # Number of times rename has blocked due to ROB full
system.cpu0.rename.RenameLookups           1623974470                       # Number of register rename lookups that rename has made
system.cpu0.rename.RenamedInsts            1324190236                       # Number of instructions processed by rename
system.cpu0.rename.RenamedOperands          855050305                       # Number of destination operands rename has renamed
system.cpu0.rename.RunCycles                914752119                       # Number of cycles rename is running
system.cpu0.rename.SQFullEvents              21234043                       # Number of times rename has blocked due to SQ full
system.cpu0.rename.SquashCycles               9569629                       # Number of cycles rename is squashing
system.cpu0.rename.UnblockCycles             39332081                       # Number of cycles rename is unblocking
system.cpu0.rename.UndoneMaps                54505994                       # Number of HB maps that are undone due to squashing
system.cpu0.rename.fp_rename_lookups               44                       # Number of floating rename lookups
system.cpu0.rename.int_rename_lookups      1623974426                       # Number of integer rename lookups
system.cpu0.rename.serializeStallCycles        169252                       # count of cycles rename stalled for serializing inst
system.cpu0.rename.serializingInsts              6210                       # count of serializing insts renamed
system.cpu0.rename.skidInsts                 15195240                       # count of insts added to the skid buffer
system.cpu0.rename.tempSerializingInsts          6195                       # count of temporary serializing insts renamed
system.cpu0.rob.rob_reads                  3279752049                       # The number of ROB reads
system.cpu0.rob.rob_writes                 2634097289                       # The number of ROB writes
system.cpu0.timesIdled                       25185368                       # Number of times that the entire CPU went into an idle state and unscheduled itself
system.cpu0.workload.numSyscalls                 2028                       # Number of system calls
system.cpu1.branchPred.BTBCorrect                   0                       # Number of correct BTB predictions (this stat may not work properly.
system.cpu1.branchPred.BTBHitPct            88.029301                       # BTB Hit Percentage
system.cpu1.branchPred.BTBHits               12561916                       # Number of BTB hits
system.cpu1.branchPred.BTBLookups            14270153                       # Number of BTB lookups
system.cpu1.branchPred.RASInCorrect                 0                       # Number of incorrect RAS predictions.
system.cpu1.branchPred.condIncorrect          2077225                       # Number of conditional branches incorrect
system.cpu1.branchPred.condPredicted         19125029                       # Number of conditional branches predicted
system.cpu1.branchPred.indirectHits            667307                       # Number of indirect target hits.
system.cpu1.branchPred.indirectLookups         780109                       # Number of indirect predictor lookups.
system.cpu1.branchPred.indirectMisses          112802                       # Number of indirect misses.
system.cpu1.branchPred.lookups               22301863                       # Number of BP lookups
system.cpu1.branchPred.usedRAS                      0                       # Number of times the RAS was used to get a target.
system.cpu1.branchPredindirectMispredicted        42168                       # Number of mispredicted indirect branches.
system.cpu1.commit.amos                       1050221                       # Number of atomic instructions committed
system.cpu1.commit.branchMispredicts          1503867                       # The number of times a branch was mispredicted
system.cpu1.commit.branches                  16229378                       # Number of branches committed
system.cpu1.commit.bw_lim_events              2043144                       # number cycles where commit BW limit reached
system.cpu1.commit.commitNonSpecStalls        3151382                       # The number of times commit has been forced to stall to communicate backwards
system.cpu1.commit.commitSquashedInsts       13678620                       # The number of squashed insts skipped by commit
system.cpu1.commit.committedInsts            67683311                       # Number of instructions committed
system.cpu1.commit.committedOps              68733733                       # Number of ops (including micro ops) committed
system.cpu1.commit.committed_per_cycle::samples    302509836                       # Number of insts commited each cycle
system.cpu1.commit.committed_per_cycle::mean     0.227212                       # Number of insts commited each cycle
system.cpu1.commit.committed_per_cycle::stdev     0.943535                       # Number of insts commited each cycle
system.cpu1.commit.committed_per_cycle::underflows            0      0.00%      0.00% # Number of insts commited each cycle
system.cpu1.commit.committed_per_cycle::0    273710910     90.48%     90.48% # Number of insts commited each cycle
system.cpu1.commit.committed_per_cycle::1     14516327      4.80%     95.28% # Number of insts commited each cycle
system.cpu1.commit.committed_per_cycle::2      5250446      1.74%     97.01% # Number of insts commited each cycle
system.cpu1.commit.committed_per_cycle::3      4052705      1.34%     98.35% # Number of insts commited each cycle
system.cpu1.commit.committed_per_cycle::4      1120864      0.37%     98.72% # Number of insts commited each cycle
system.cpu1.commit.committed_per_cycle::5       501328      0.17%     98.89% # Number of insts commited each cycle
system.cpu1.commit.committed_per_cycle::6       975633      0.32%     99.21% # Number of insts commited each cycle
system.cpu1.commit.committed_per_cycle::7       338479      0.11%     99.32% # Number of insts commited each cycle
system.cpu1.commit.committed_per_cycle::8      2043144      0.68%    100.00% # Number of insts commited each cycle
system.cpu1.commit.committed_per_cycle::overflows            0      0.00%    100.00% # Number of insts commited each cycle
system.cpu1.commit.committed_per_cycle::min_value            0                       # Number of insts commited each cycle
system.cpu1.commit.committed_per_cycle::max_value            8                       # Number of insts commited each cycle
system.cpu1.commit.committed_per_cycle::total    302509836                       # Number of insts commited each cycle
system.cpu1.commit.fp_insts                        12                       # Number of committed floating point instructions.
system.cpu1.commit.function_calls             1074968                       # Number of function calls committed.
system.cpu1.commit.int_insts                 65718377                       # Number of committed integer instructions.
system.cpu1.commit.loads                     16752567                       # Number of loads committed
system.cpu1.commit.membars                    2100507                       # Number of memory barriers committed
system.cpu1.commit.op_class_0::No_OpClass      2100507      3.06%      3.06% # Class of committed instruction
system.cpu1.commit.op_class_0::IntAlu        43604745     63.44%     66.50% # Class of committed instruction
system.cpu1.commit.op_class_0::IntMult             44      0.00%     66.50% # Class of committed instruction
system.cpu1.commit.op_class_0::IntDiv              88      0.00%     66.50% # Class of committed instruction
system.cpu1.commit.op_class_0::FloatAdd             0      0.00%     66.50% # Class of committed instruction
system.cpu1.commit.op_class_0::FloatCmp             0      0.00%     66.50% # Class of committed instruction
system.cpu1.commit.op_class_0::FloatCvt             0      0.00%     66.50% # Class of committed instruction
system.cpu1.commit.op_class_0::FloatMult            0      0.00%     66.50% # Class of committed instruction
system.cpu1.commit.op_class_0::FloatMultAcc            0      0.00%     66.50% # Class of committed instruction
system.cpu1.commit.op_class_0::FloatDiv             0      0.00%     66.50% # Class of committed instruction
system.cpu1.commit.op_class_0::FloatMisc            0      0.00%     66.50% # Class of committed instruction
system.cpu1.commit.op_class_0::FloatSqrt            0      0.00%     66.50% # Class of committed instruction
system.cpu1.commit.op_class_0::SimdAdd              0      0.00%     66.50% # Class of committed instruction
system.cpu1.commit.op_class_0::SimdAddAcc            0      0.00%     66.50% # Class of committed instruction
system.cpu1.commit.op_class_0::SimdAlu              0      0.00%     66.50% # Class of committed instruction
system.cpu1.commit.op_class_0::SimdCmp              0      0.00%     66.50% # Class of committed instruction
system.cpu1.commit.op_class_0::SimdCvt              0      0.00%     66.50% # Class of committed instruction
system.cpu1.commit.op_class_0::SimdMisc             0      0.00%     66.50% # Class of committed instruction
system.cpu1.commit.op_class_0::SimdMult             0      0.00%     66.50% # Class of committed instruction
system.cpu1.commit.op_class_0::SimdMultAcc            0      0.00%     66.50% # Class of committed instruction
system.cpu1.commit.op_class_0::SimdShift            0      0.00%     66.50% # Class of committed instruction
system.cpu1.commit.op_class_0::SimdShiftAcc            0      0.00%     66.50% # Class of committed instruction
system.cpu1.commit.op_class_0::SimdDiv              0      0.00%     66.50% # Class of committed instruction
system.cpu1.commit.op_class_0::SimdSqrt             0      0.00%     66.50% # Class of committed instruction
system.cpu1.commit.op_class_0::SimdFloatAdd            0      0.00%     66.50% # Class of committed instruction
system.cpu1.commit.op_class_0::SimdFloatAlu            0      0.00%     66.50% # Class of committed instruction
system.cpu1.commit.op_class_0::SimdFloatCmp            0      0.00%     66.50% # Class of committed instruction
system.cpu1.commit.op_class_0::SimdFloatCvt            0      0.00%     66.50% # Class of committed instruction
system.cpu1.commit.op_class_0::SimdFloatDiv            0      0.00%     66.50% # Class of committed instruction
system.cpu1.commit.op_class_0::SimdFloatMisc            0      0.00%     66.50% # Class of committed instruction
system.cpu1.commit.op_class_0::SimdFloatMult            0      0.00%     66.50% # Class of committed instruction
system.cpu1.commit.op_class_0::SimdFloatMultAcc            0      0.00%     66.50% # Class of committed instruction
system.cpu1.commit.op_class_0::SimdFloatSqrt            0      0.00%     66.50% # Class of committed instruction
system.cpu1.commit.op_class_0::SimdReduceAdd            0      0.00%     66.50% # Class of committed instruction
system.cpu1.commit.op_class_0::SimdReduceAlu            0      0.00%     66.50% # Class of committed instruction
system.cpu1.commit.op_class_0::SimdReduceCmp            0      0.00%     66.50% # Class of committed instruction
system.cpu1.commit.op_class_0::SimdFloatReduceAdd            0      0.00%     66.50% # Class of committed instruction
system.cpu1.commit.op_class_0::SimdFloatReduceCmp            0      0.00%     66.50% # Class of committed instruction
system.cpu1.commit.op_class_0::SimdAes              0      0.00%     66.50% # Class of committed instruction
system.cpu1.commit.op_class_0::SimdAesMix            0      0.00%     66.50% # Class of committed instruction
system.cpu1.commit.op_class_0::SimdSha1Hash            0      0.00%     66.50% # Class of committed instruction
system.cpu1.commit.op_class_0::SimdSha1Hash2            0      0.00%     66.50% # Class of committed instruction
system.cpu1.commit.op_class_0::SimdSha256Hash            0      0.00%     66.50% # Class of committed instruction
system.cpu1.commit.op_class_0::SimdSha256Hash2            0      0.00%     66.50% # Class of committed instruction
system.cpu1.commit.op_class_0::SimdShaSigma2            0      0.00%     66.50% # Class of committed instruction
system.cpu1.commit.op_class_0::SimdShaSigma3            0      0.00%     66.50% # Class of committed instruction
system.cpu1.commit.op_class_0::SimdPredAlu            0      0.00%     66.50% # Class of committed instruction
system.cpu1.commit.op_class_0::MemRead       17802788     25.90%     92.40% # Class of committed instruction
system.cpu1.commit.op_class_0::MemWrite       5225549      7.60%    100.00% # Class of committed instruction
system.cpu1.commit.op_class_0::FloatMemRead            0      0.00%    100.00% # Class of committed instruction
system.cpu1.commit.op_class_0::FloatMemWrite           12      0.00%    100.00% # Class of committed instruction
system.cpu1.commit.op_class_0::IprAccess            0      0.00%    100.00% # Class of committed instruction
system.cpu1.commit.op_class_0::InstPrefetch            0      0.00%    100.00% # Class of committed instruction
system.cpu1.commit.op_class_0::total         68733733                       # Class of committed instruction
system.cpu1.commit.refs                      23028349                       # Number of memory references committed
system.cpu1.commit.swp_count                        0                       # Number of s/w prefetches committed
system.cpu1.commit.vec_insts                        0                       # Number of committed Vector instructions.
system.cpu1.committedInsts                   67683311                       # Number of Instructions Simulated
system.cpu1.committedOps                     68733733                       # Number of Ops (including micro ops) Simulated
system.cpu1.cpi                              4.525682                       # CPI: Cycles Per Instruction
system.cpu1.cpi_total                        4.525682                       # CPI: Total CPI of All Threads
system.cpu1.decode.BlockedCycles            240145316                       # Number of cycles decode is blocked
system.cpu1.decode.BranchMispred               602244                       # Number of times decode detected a branch misprediction
system.cpu1.decode.BranchResolved            11777841                       # Number of times decode resolved a branch
system.cpu1.decode.DecodedInsts              87979747                       # Number of instructions handled by decode
system.cpu1.decode.IdleCycles                17731197                       # Number of cycles decode is idle
system.cpu1.decode.RunCycles                 43438524                       # Number of cycles decode is running
system.cpu1.decode.SquashCycles               1505304                       # Number of cycles decode is squashing
system.cpu1.decode.SquashedInsts              1467114                       # Number of squashed instructions handled by decode
system.cpu1.decode.UnblockCycles              2446488                       # Number of cycles decode is unblocking
system.cpu1.dtb.accesses                            0                       # DTB accesses
system.cpu1.dtb.hits                                0                       # DTB hits
system.cpu1.dtb.misses                              0                       # DTB misses
system.cpu1.dtb.read_accesses                       0                       # DTB read accesses
system.cpu1.dtb.read_hits                           0                       # DTB read hits
system.cpu1.dtb.read_misses                         0                       # DTB read misses
system.cpu1.dtb.write_accesses                      0                       # DTB write accesses
system.cpu1.dtb.write_hits                          0                       # DTB write hits
system.cpu1.dtb.write_misses                        0                       # DTB write misses
system.cpu1.fetch.Branches                   22301863                       # Number of branches that fetch encountered
system.cpu1.fetch.CacheLines                 15431654                       # Number of cache lines fetched
system.cpu1.fetch.Cycles                    285364084                       # Number of cycles fetch has run and was not squashing or blocked
system.cpu1.fetch.IcacheSquashes               352322                       # Number of outstanding Icache misses that were squashed
system.cpu1.fetch.IcacheWaitRetryStallCycles            9                       # Number of stall cycles due to full MSHR
system.cpu1.fetch.Insts                      95417878                       # Number of instructions fetch has processed
system.cpu1.fetch.MiscStallCycles                   2                       # Number of cycles fetch has spent waiting on interrupts, or bad addresses, or out of MSHRs
system.cpu1.fetch.SquashCycles                4157324                       # Number of cycles fetch has spent squashing
system.cpu1.fetch.branchRate                 0.072807                       # Number of branch fetches per cycle
system.cpu1.fetch.icacheStallCycles          17824072                       # Number of cycles fetch is stalled on an Icache miss
system.cpu1.fetch.predictedBranches          13229223                       # Number of branches that fetch has predicted taken
system.cpu1.fetch.rate                       0.311504                       # Number of inst fetches per cycle
system.cpu1.fetch.rateDist::samples         305266829                       # Number of instructions fetched each cycle (Total)
system.cpu1.fetch.rateDist::mean             0.317475                       # Number of instructions fetched each cycle (Total)
system.cpu1.fetch.rateDist::stdev            0.755919                       # Number of instructions fetched each cycle (Total)
system.cpu1.fetch.rateDist::underflows              0      0.00%      0.00% # Number of instructions fetched each cycle (Total)
system.cpu1.fetch.rateDist::0               243922332     79.90%     79.90% # Number of instructions fetched each cycle (Total)
system.cpu1.fetch.rateDist::1                38762754     12.70%     92.60% # Number of instructions fetched each cycle (Total)
system.cpu1.fetch.rateDist::2                13195709      4.32%     96.93% # Number of instructions fetched each cycle (Total)
system.cpu1.fetch.rateDist::3                 7213583      2.36%     99.29% # Number of instructions fetched each cycle (Total)
system.cpu1.fetch.rateDist::4                 1293215      0.42%     99.71% # Number of instructions fetched each cycle (Total)
system.cpu1.fetch.rateDist::5                  330384      0.11%     99.82% # Number of instructions fetched each cycle (Total)
system.cpu1.fetch.rateDist::6                  547993      0.18%    100.00% # Number of instructions fetched each cycle (Total)
system.cpu1.fetch.rateDist::7                      10      0.00%    100.00% # Number of instructions fetched each cycle (Total)
system.cpu1.fetch.rateDist::8                     849      0.00%    100.00% # Number of instructions fetched each cycle (Total)
system.cpu1.fetch.rateDist::overflows               0      0.00%    100.00% # Number of instructions fetched each cycle (Total)
system.cpu1.fetch.rateDist::min_value               0                       # Number of instructions fetched each cycle (Total)
system.cpu1.fetch.rateDist::max_value               8                       # Number of instructions fetched each cycle (Total)
system.cpu1.fetch.rateDist::total           305266829                       # Number of instructions fetched each cycle (Total)
system.cpu1.fp_regfile_reads                       12                       # number of floating regfile reads
system.cpu1.idleCycles                        1046318                       # Total number of cycles that the CPU has spent unscheduled due to idling
system.cpu1.iew.branchMispredicts             1568167                       # Number of branch mispredicts detected at execute
system.cpu1.iew.exec_branches                18074069                       # Number of branches executed
system.cpu1.iew.exec_nop                            0                       # number of nop insts executed
system.cpu1.iew.exec_rate                    0.250459                       # Inst execution rate
system.cpu1.iew.exec_refs                    25870085                       # number of memory reference insts executed
system.cpu1.iew.exec_stores                   6632412                       # Number of stores executed
system.cpu1.iew.exec_swp                            0                       # number of swp insts executed
system.cpu1.iew.iewBlockCycles              203726852                       # Number of cycles IEW is blocking
system.cpu1.iew.iewDispLoadInsts             20604275                       # Number of dispatched load instructions
system.cpu1.iew.iewDispNonSpecInsts           1168089                       # Number of dispatched non-speculative instructions
system.cpu1.iew.iewDispSquashedInsts          1648676                       # Number of squashed instructions skipped by dispatch
system.cpu1.iew.iewDispStoreInsts             7214995                       # Number of dispatched store instructions
system.cpu1.iew.iewDispatchedInsts           82386713                       # Number of instructions dispatched to IQ
system.cpu1.iew.iewExecLoadInsts             19237673                       # Number of load instructions executed
system.cpu1.iew.iewExecSquashedInsts          1334207                       # Number of squashed instructions skipped in execute
system.cpu1.iew.iewExecutedInsts             76718891                       # Number of executed instructions
system.cpu1.iew.iewIQFullEvents               1013069                       # Number of times the IQ has become full, causing a stall
system.cpu1.iew.iewIdleCycles                       0                       # Number of cycles IEW is idle
system.cpu1.iew.iewLSQFullEvents              3957689                       # Number of times the LSQ has become full, causing a stall
system.cpu1.iew.iewSquashCycles               1505304                       # Number of cycles IEW is squashing
system.cpu1.iew.iewUnblockCycles              6125641                       # Number of cycles IEW is unblocking
system.cpu1.iew.lsq.thread0.blockedLoads            0                       # Number of blocked loads due to partial load-store forwarding
system.cpu1.iew.lsq.thread0.cacheBlocked        66816                       # Number of times an access to memory failed due to the cache being blocked
system.cpu1.iew.lsq.thread0.forwLoads          720951                       # Number of loads that had data forwarded from stores
system.cpu1.iew.lsq.thread0.ignoredResponses        32423                       # Number of memory responses ignored because the instruction is squashed
system.cpu1.iew.lsq.thread0.invAddrLoads            0                       # Number of loads ignored due to an invalid address
system.cpu1.iew.lsq.thread0.invAddrSwpfs            0                       # Number of software prefetches ignored due to an invalid address
system.cpu1.iew.lsq.thread0.memOrderViolation         1953                       # Number of memory ordering violations
system.cpu1.iew.lsq.thread0.rescheduledLoads        10836                       # Number of loads that were rescheduled
system.cpu1.iew.lsq.thread0.squashedLoads      3851708                       # Number of loads squashed
system.cpu1.iew.lsq.thread0.squashedStores       939213                       # Number of stores squashed
system.cpu1.iew.memOrderViolationEvents          1953                       # Number of memory order violations
system.cpu1.iew.predictedNotTakenIncorrect       539588                       # Number of branches that were predicted not taken incorrectly
system.cpu1.iew.predictedTakenIncorrect       1028579                       # Number of branches that were predicted taken incorrectly
system.cpu1.iew.wb_consumers                 43642841                       # num instructions consuming a value
system.cpu1.iew.wb_count                     75637349                       # cumulative count of insts written-back
system.cpu1.iew.wb_fanout                    0.825928                       # average fanout of values written-back
system.cpu1.iew.wb_producers                 36045847                       # num instructions producing a value
system.cpu1.iew.wb_rate                      0.246928                       # insts written-back per cycle
system.cpu1.iew.wb_sent                      75688402                       # cumulative count of insts sent to commit
system.cpu1.int_regfile_reads                97629832                       # number of integer regfile reads
system.cpu1.int_regfile_writes               50552752                       # number of integer regfile writes
system.cpu1.ipc                              0.220961                       # IPC: Instructions Per Cycle
system.cpu1.ipc_total                        0.220961                       # IPC: Total IPC of All Threads
system.cpu1.iq.FU_type_0::No_OpClass          2100725      2.69%      2.69% # Type of FU issued
system.cpu1.iq.FU_type_0::IntAlu             49672266     63.64%     66.33% # Type of FU issued
system.cpu1.iq.FU_type_0::IntMult                  55      0.00%     66.33% # Type of FU issued
system.cpu1.iq.FU_type_0::IntDiv                   90      0.00%     66.33% # Type of FU issued
system.cpu1.iq.FU_type_0::FloatAdd                  0      0.00%     66.33% # Type of FU issued
system.cpu1.iq.FU_type_0::FloatCmp                  0      0.00%     66.33% # Type of FU issued
system.cpu1.iq.FU_type_0::FloatCvt                  0      0.00%     66.33% # Type of FU issued
system.cpu1.iq.FU_type_0::FloatMult                 0      0.00%     66.33% # Type of FU issued
system.cpu1.iq.FU_type_0::FloatMultAcc              0      0.00%     66.33% # Type of FU issued
system.cpu1.iq.FU_type_0::FloatDiv                  0      0.00%     66.33% # Type of FU issued
system.cpu1.iq.FU_type_0::FloatMisc                 0      0.00%     66.33% # Type of FU issued
system.cpu1.iq.FU_type_0::FloatSqrt                 0      0.00%     66.33% # Type of FU issued
system.cpu1.iq.FU_type_0::SimdAdd                   0      0.00%     66.33% # Type of FU issued
system.cpu1.iq.FU_type_0::SimdAddAcc                0      0.00%     66.33% # Type of FU issued
system.cpu1.iq.FU_type_0::SimdAlu                   0      0.00%     66.33% # Type of FU issued
system.cpu1.iq.FU_type_0::SimdCmp                   0      0.00%     66.33% # Type of FU issued
system.cpu1.iq.FU_type_0::SimdCvt                   0      0.00%     66.33% # Type of FU issued
system.cpu1.iq.FU_type_0::SimdMisc                  0      0.00%     66.33% # Type of FU issued
system.cpu1.iq.FU_type_0::SimdMult                  0      0.00%     66.33% # Type of FU issued
system.cpu1.iq.FU_type_0::SimdMultAcc               0      0.00%     66.33% # Type of FU issued
system.cpu1.iq.FU_type_0::SimdShift                 0      0.00%     66.33% # Type of FU issued
system.cpu1.iq.FU_type_0::SimdShiftAcc              0      0.00%     66.33% # Type of FU issued
system.cpu1.iq.FU_type_0::SimdDiv                   0      0.00%     66.33% # Type of FU issued
system.cpu1.iq.FU_type_0::SimdSqrt                  0      0.00%     66.33% # Type of FU issued
system.cpu1.iq.FU_type_0::SimdFloatAdd              0      0.00%     66.33% # Type of FU issued
system.cpu1.iq.FU_type_0::SimdFloatAlu              0      0.00%     66.33% # Type of FU issued
system.cpu1.iq.FU_type_0::SimdFloatCmp              0      0.00%     66.33% # Type of FU issued
system.cpu1.iq.FU_type_0::SimdFloatCvt              0      0.00%     66.33% # Type of FU issued
system.cpu1.iq.FU_type_0::SimdFloatDiv              0      0.00%     66.33% # Type of FU issued
system.cpu1.iq.FU_type_0::SimdFloatMisc             0      0.00%     66.33% # Type of FU issued
system.cpu1.iq.FU_type_0::SimdFloatMult             0      0.00%     66.33% # Type of FU issued
system.cpu1.iq.FU_type_0::SimdFloatMultAcc            0      0.00%     66.33% # Type of FU issued
system.cpu1.iq.FU_type_0::SimdFloatSqrt             0      0.00%     66.33% # Type of FU issued
system.cpu1.iq.FU_type_0::SimdReduceAdd             0      0.00%     66.33% # Type of FU issued
system.cpu1.iq.FU_type_0::SimdReduceAlu             0      0.00%     66.33% # Type of FU issued
system.cpu1.iq.FU_type_0::SimdReduceCmp             0      0.00%     66.33% # Type of FU issued
system.cpu1.iq.FU_type_0::SimdFloatReduceAdd            0      0.00%     66.33% # Type of FU issued
system.cpu1.iq.FU_type_0::SimdFloatReduceCmp            0      0.00%     66.33% # Type of FU issued
system.cpu1.iq.FU_type_0::SimdAes                   0      0.00%     66.33% # Type of FU issued
system.cpu1.iq.FU_type_0::SimdAesMix                0      0.00%     66.33% # Type of FU issued
system.cpu1.iq.FU_type_0::SimdSha1Hash              0      0.00%     66.33% # Type of FU issued
system.cpu1.iq.FU_type_0::SimdSha1Hash2             0      0.00%     66.33% # Type of FU issued
system.cpu1.iq.FU_type_0::SimdSha256Hash            0      0.00%     66.33% # Type of FU issued
system.cpu1.iq.FU_type_0::SimdSha256Hash2            0      0.00%     66.33% # Type of FU issued
system.cpu1.iq.FU_type_0::SimdShaSigma2             0      0.00%     66.33% # Type of FU issued
system.cpu1.iq.FU_type_0::SimdShaSigma3             0      0.00%     66.33% # Type of FU issued
system.cpu1.iq.FU_type_0::SimdPredAlu               0      0.00%     66.33% # Type of FU issued
system.cpu1.iq.FU_type_0::MemRead            20627405     26.43%     92.76% # Type of FU issued
system.cpu1.iq.FU_type_0::MemWrite            5652545      7.24%    100.00% # Type of FU issued
system.cpu1.iq.FU_type_0::FloatMemRead              0      0.00%    100.00% # Type of FU issued
system.cpu1.iq.FU_type_0::FloatMemWrite            12      0.00%    100.00% # Type of FU issued
system.cpu1.iq.FU_type_0::IprAccess                 0      0.00%    100.00% # Type of FU issued
system.cpu1.iq.FU_type_0::InstPrefetch              0      0.00%    100.00% # Type of FU issued
system.cpu1.iq.FU_type_0::total              78053098                       # Type of FU issued
system.cpu1.iq.fp_alu_accesses                     16                       # Number of floating point alu accesses
system.cpu1.iq.fp_inst_queue_reads                 28                       # Number of floating instruction queue reads
system.cpu1.iq.fp_inst_queue_wakeup_accesses           12                       # Number of floating instruction queue wakeup accesses
system.cpu1.iq.fp_inst_queue_writes                12                       # Number of floating instruction queue writes
system.cpu1.iq.fu_busy_cnt                    1536859                       # FU busy when requested
system.cpu1.iq.fu_busy_rate                  0.019690                       # FU busy rate (busy events/executed inst)
system.cpu1.iq.fu_full::No_OpClass                  0      0.00%      0.00% # attempts to use FU when none available
system.cpu1.iq.fu_full::IntAlu                 327877     21.33%     21.33% # attempts to use FU when none available
system.cpu1.iq.fu_full::IntMult                     0      0.00%     21.33% # attempts to use FU when none available
system.cpu1.iq.fu_full::IntDiv                      0      0.00%     21.33% # attempts to use FU when none available
system.cpu1.iq.fu_full::FloatAdd                    0      0.00%     21.33% # attempts to use FU when none available
system.cpu1.iq.fu_full::FloatCmp                    0      0.00%     21.33% # attempts to use FU when none available
system.cpu1.iq.fu_full::FloatCvt                    0      0.00%     21.33% # attempts to use FU when none available
system.cpu1.iq.fu_full::FloatMult                   0      0.00%     21.33% # attempts to use FU when none available
system.cpu1.iq.fu_full::FloatMultAcc                0      0.00%     21.33% # attempts to use FU when none available
system.cpu1.iq.fu_full::FloatDiv                    0      0.00%     21.33% # attempts to use FU when none available
system.cpu1.iq.fu_full::FloatMisc                   0      0.00%     21.33% # attempts to use FU when none available
system.cpu1.iq.fu_full::FloatSqrt                   0      0.00%     21.33% # attempts to use FU when none available
system.cpu1.iq.fu_full::SimdAdd                     0      0.00%     21.33% # attempts to use FU when none available
system.cpu1.iq.fu_full::SimdAddAcc                  0      0.00%     21.33% # attempts to use FU when none available
system.cpu1.iq.fu_full::SimdAlu                     0      0.00%     21.33% # attempts to use FU when none available
system.cpu1.iq.fu_full::SimdCmp                     0      0.00%     21.33% # attempts to use FU when none available
system.cpu1.iq.fu_full::SimdCvt                     0      0.00%     21.33% # attempts to use FU when none available
system.cpu1.iq.fu_full::SimdMisc                    0      0.00%     21.33% # attempts to use FU when none available
system.cpu1.iq.fu_full::SimdMult                    0      0.00%     21.33% # attempts to use FU when none available
system.cpu1.iq.fu_full::SimdMultAcc                 0      0.00%     21.33% # attempts to use FU when none available
system.cpu1.iq.fu_full::SimdShift                   0      0.00%     21.33% # attempts to use FU when none available
system.cpu1.iq.fu_full::SimdShiftAcc                0      0.00%     21.33% # attempts to use FU when none available
system.cpu1.iq.fu_full::SimdDiv                     0      0.00%     21.33% # attempts to use FU when none available
system.cpu1.iq.fu_full::SimdSqrt                    0      0.00%     21.33% # attempts to use FU when none available
system.cpu1.iq.fu_full::SimdFloatAdd                0      0.00%     21.33% # attempts to use FU when none available
system.cpu1.iq.fu_full::SimdFloatAlu                0      0.00%     21.33% # attempts to use FU when none available
system.cpu1.iq.fu_full::SimdFloatCmp                0      0.00%     21.33% # attempts to use FU when none available
system.cpu1.iq.fu_full::SimdFloatCvt                0      0.00%     21.33% # attempts to use FU when none available
system.cpu1.iq.fu_full::SimdFloatDiv                0      0.00%     21.33% # attempts to use FU when none available
system.cpu1.iq.fu_full::SimdFloatMisc               0      0.00%     21.33% # attempts to use FU when none available
system.cpu1.iq.fu_full::SimdFloatMult               0      0.00%     21.33% # attempts to use FU when none available
system.cpu1.iq.fu_full::SimdFloatMultAcc            0      0.00%     21.33% # attempts to use FU when none available
system.cpu1.iq.fu_full::SimdFloatSqrt               0      0.00%     21.33% # attempts to use FU when none available
system.cpu1.iq.fu_full::SimdReduceAdd               0      0.00%     21.33% # attempts to use FU when none available
system.cpu1.iq.fu_full::SimdReduceAlu               0      0.00%     21.33% # attempts to use FU when none available
system.cpu1.iq.fu_full::SimdReduceCmp               0      0.00%     21.33% # attempts to use FU when none available
system.cpu1.iq.fu_full::SimdFloatReduceAdd            0      0.00%     21.33% # attempts to use FU when none available
system.cpu1.iq.fu_full::SimdFloatReduceCmp            0      0.00%     21.33% # attempts to use FU when none available
system.cpu1.iq.fu_full::SimdAes                     0      0.00%     21.33% # attempts to use FU when none available
system.cpu1.iq.fu_full::SimdAesMix                  0      0.00%     21.33% # attempts to use FU when none available
system.cpu1.iq.fu_full::SimdSha1Hash                0      0.00%     21.33% # attempts to use FU when none available
system.cpu1.iq.fu_full::SimdSha1Hash2               0      0.00%     21.33% # attempts to use FU when none available
system.cpu1.iq.fu_full::SimdSha256Hash              0      0.00%     21.33% # attempts to use FU when none available
system.cpu1.iq.fu_full::SimdSha256Hash2             0      0.00%     21.33% # attempts to use FU when none available
system.cpu1.iq.fu_full::SimdShaSigma2               0      0.00%     21.33% # attempts to use FU when none available
system.cpu1.iq.fu_full::SimdShaSigma3               0      0.00%     21.33% # attempts to use FU when none available
system.cpu1.iq.fu_full::SimdPredAlu                 0      0.00%     21.33% # attempts to use FU when none available
system.cpu1.iq.fu_full::MemRead                965086     62.80%     84.13% # attempts to use FU when none available
system.cpu1.iq.fu_full::MemWrite               243892     15.87%    100.00% # attempts to use FU when none available
[...]
system.cpu1.dcache.WriteReq_mshr_miss_latency::total  12428436473                       # number of WriteReq MSHR miss cycles
system.cpu1.dcache.WriteReq_mshr_miss_rate::.cpu1.data     0.046997                       # mshr miss rate for WriteReq accesses
system.cpu1.dcache.WriteReq_mshr_miss_rate::total     0.046997                       # mshr miss rate for WriteReq accesses
system.cpu1.dcache.WriteReq_avg_mshr_miss_latency::.cpu1.data 111968.904882                       # average WriteReq mshr miss latency
system.cpu1.dcache.WriteReq_avg_mshr_miss_latency::total 111968.904882                       # average WriteReq mshr miss latency
system.cpu1.dcache.LoadLockedReq_hits::.cpu1.data        16677                       # number of LoadLockedReq hits
system.cpu1.dcache.LoadLockedReq_hits::total        16677                       # number of LoadLockedReq hits
system.cpu1.dcache.LoadLockedReq_misses::.cpu1.data          690                       # number of LoadLockedReq misses
system.cpu1.dcache.LoadLockedReq_misses::total          690                       # number of LoadLockedReq misses
system.cpu1.dcache.LoadLockedReq_miss_latency::.cpu1.data     22788000                       # number of LoadLockedReq miss cycles
system.cpu1.dcache.LoadLockedReq_miss_latency::total     22788000                       # number of LoadLockedReq miss cycles
system.cpu1.dcache.LoadLockedReq_accesses::.cpu1.data        17367                       # number of LoadLockedReq accesses(hits+misses)
system.cpu1.dcache.LoadLockedReq_accesses::total        17367                       # number of LoadLockedReq accesses(hits+misses)
system.cpu1.dcache.LoadLockedReq_miss_rate::.cpu1.data     0.039731                       # miss rate for LoadLockedReq accesses
system.cpu1.dcache.LoadLockedReq_miss_rate::total     0.039731                       # miss rate for LoadLockedReq accesses
system.cpu1.dcache.LoadLockedReq_avg_miss_latency::.cpu1.data 33026.086957                       # average LoadLockedReq miss latency
system.cpu1.dcache.LoadLockedReq_avg_miss_latency::total 33026.086957                       # average LoadLockedReq miss latency
system.cpu1.dcache.LoadLockedReq_mshr_hits::.cpu1.data          142                       # number of LoadLockedReq MSHR hits
system.cpu1.dcache.LoadLockedReq_mshr_hits::total          142                       # number of LoadLockedReq MSHR hits
system.cpu1.dcache.LoadLockedReq_mshr_misses::.cpu1.data          548                       # number of LoadLockedReq MSHR misses
system.cpu1.dcache.LoadLockedReq_mshr_misses::total          548                       # number of LoadLockedReq MSHR misses
system.cpu1.dcache.LoadLockedReq_mshr_miss_latency::.cpu1.data     15463000                       # number of LoadLockedReq MSHR miss cycles
system.cpu1.dcache.LoadLockedReq_mshr_miss_latency::total     15463000                       # number of LoadLockedReq MSHR miss cycles
system.cpu1.dcache.LoadLockedReq_mshr_miss_rate::.cpu1.data     0.031554                       # mshr miss rate for LoadLockedReq accesses
system.cpu1.dcache.LoadLockedReq_mshr_miss_rate::total     0.031554                       # mshr miss rate for LoadLockedReq accesses
system.cpu1.dcache.LoadLockedReq_avg_mshr_miss_latency::.cpu1.data 28217.153285                       # average LoadLockedReq mshr miss latency
system.cpu1.dcache.LoadLockedReq_avg_mshr_miss_latency::total 28217.153285                       # average LoadLockedReq mshr miss latency
system.cpu1.dcache.StoreCondReq_hits::.cpu1.data        15867                       # number of StoreCondReq hits
system.cpu1.dcache.StoreCondReq_hits::total        15867                       # number of StoreCondReq hits
system.cpu1.dcache.StoreCondReq_misses::.cpu1.data          775                       # number of StoreCondReq misses
system.cpu1.dcache.StoreCondReq_misses::total          775                       # number of StoreCondReq misses
system.cpu1.dcache.StoreCondReq_miss_latency::.cpu1.data      6559000                       # number of StoreCondReq miss cycles
system.cpu1.dcache.StoreCondReq_miss_latency::total      6559000                       # number of StoreCondReq miss cycles
system.cpu1.dcache.StoreCondReq_accesses::.cpu1.data        16642                       # number of StoreCondReq accesses(hits+misses)
system.cpu1.dcache.StoreCondReq_accesses::total        16642                       # number of StoreCondReq accesses(hits+misses)
system.cpu1.dcache.StoreCondReq_miss_rate::.cpu1.data     0.046569                       # miss rate for StoreCondReq accesses
system.cpu1.dcache.StoreCondReq_miss_rate::total     0.046569                       # miss rate for StoreCondReq accesses
system.cpu1.dcache.StoreCondReq_avg_miss_latency::.cpu1.data  8463.225806                       # average StoreCondReq miss latency
system.cpu1.dcache.StoreCondReq_avg_miss_latency::total  8463.225806                       # average StoreCondReq miss latency
system.cpu1.dcache.StoreCondReq_mshr_misses::.cpu1.data          764                       # number of StoreCondReq MSHR misses
system.cpu1.dcache.StoreCondReq_mshr_misses::total          764                       # number of StoreCondReq MSHR misses
system.cpu1.dcache.StoreCondReq_mshr_miss_latency::.cpu1.data      5855000                       # number of StoreCondReq MSHR miss cycles
system.cpu1.dcache.StoreCondReq_mshr_miss_latency::total      5855000                       # number of StoreCondReq MSHR miss cycles
system.cpu1.dcache.StoreCondReq_mshr_miss_rate::.cpu1.data     0.045908                       # mshr miss rate for StoreCondReq accesses
system.cpu1.dcache.StoreCondReq_mshr_miss_rate::total     0.045908                       # mshr miss rate for StoreCondReq accesses
system.cpu1.dcache.StoreCondReq_avg_mshr_miss_latency::.cpu1.data  7663.612565                       # average StoreCondReq mshr miss latency
system.cpu1.dcache.StoreCondReq_avg_mshr_miss_latency::total  7663.612565                       # average StoreCondReq mshr miss latency
system.cpu1.dcache.StoreCondFailReq_miss_latency::.cpu1.data      1106000                       # number of StoreCondFailReq miss cycles
system.cpu1.dcache.StoreCondFailReq_miss_latency::total      1106000                       # number of StoreCondFailReq miss cycles
system.cpu1.dcache.StoreCondFailReq_avg_miss_latency::.cpu1.data          inf                       # average StoreCondFailReq miss latency
system.cpu1.dcache.StoreCondFailReq_avg_miss_latency::total          inf                       # average StoreCondFailReq miss latency
system.cpu1.dcache.StoreCondFailReq_mshr_miss_latency::.cpu1.data      1046000                       # number of StoreCondFailReq MSHR miss cycles
system.cpu1.dcache.StoreCondFailReq_mshr_miss_latency::total      1046000                       # number of StoreCondFailReq MSHR miss cycles
system.cpu1.dcache.StoreCondFailReq_avg_mshr_miss_latency::.cpu1.data          inf                       # average StoreCondFailReq mshr miss latency
system.cpu1.dcache.StoreCondFailReq_avg_mshr_miss_latency::total          inf                       # average StoreCondFailReq mshr miss latency
system.cpu1.dcache.SwapReq_hits::.cpu1.data          653                       # number of SwapReq hits
system.cpu1.dcache.SwapReq_hits::total            653                       # number of SwapReq hits
system.cpu1.dcache.SwapReq_misses::.cpu1.data         1226                       # number of SwapReq misses
system.cpu1.dcache.SwapReq_misses::total         1226                       # number of SwapReq misses
system.cpu1.dcache.SwapReq_miss_latency::.cpu1.data     14347000                       # number of SwapReq miss cycles
system.cpu1.dcache.SwapReq_miss_latency::total     14347000                       # number of SwapReq miss cycles
system.cpu1.dcache.SwapReq_accesses::.cpu1.data         1879                       # number of SwapReq accesses(hits+misses)
system.cpu1.dcache.SwapReq_accesses::total         1879                       # number of SwapReq accesses(hits+misses)
system.cpu1.dcache.SwapReq_miss_rate::.cpu1.data     0.652475                       # miss rate for SwapReq accesses
system.cpu1.dcache.SwapReq_miss_rate::total     0.652475                       # miss rate for SwapReq accesses
system.cpu1.dcache.SwapReq_avg_miss_latency::.cpu1.data 11702.283850                       # average SwapReq miss latency
system.cpu1.dcache.SwapReq_avg_miss_latency::total 11702.283850                       # average SwapReq miss latency
system.cpu1.dcache.SwapReq_mshr_misses::.cpu1.data         1226                       # number of SwapReq MSHR misses
system.cpu1.dcache.SwapReq_mshr_misses::total         1226                       # number of SwapReq MSHR misses
system.cpu1.dcache.SwapReq_mshr_miss_latency::.cpu1.data     13121000                       # number of SwapReq MSHR miss cycles
system.cpu1.dcache.SwapReq_mshr_miss_latency::total     13121000                       # number of SwapReq MSHR miss cycles
system.cpu1.dcache.SwapReq_mshr_miss_rate::.cpu1.data     0.652475                       # mshr miss rate for SwapReq accesses
system.cpu1.dcache.SwapReq_mshr_miss_rate::total     0.652475                       # mshr miss rate for SwapReq accesses
system.cpu1.dcache.SwapReq_avg_mshr_miss_latency::.cpu1.data 10702.283850                       # average SwapReq mshr miss latency
system.cpu1.dcache.SwapReq_avg_mshr_miss_latency::total 10702.283850                       # average SwapReq mshr miss latency
system.cpu1.dcache.tags.pwrStateResidencyTicks::UNDEFINED  44788291500                       # Cumulative time (in ticks) in various power states
system.cpu1.dcache.tags.tagsinuse           31.411824                       # Cycle average of tags in use
system.cpu1.dcache.tags.total_refs            7917266                       # Total number of references to valid blocks.
system.cpu1.dcache.tags.sampled_refs           496444                       # Sample count of references to valid blocks.
system.cpu1.dcache.tags.avg_refs            15.947954                       # Average number of references to valid blocks.
system.cpu1.dcache.tags.warmup_cycle                0                       # Cycle when the warmup percentage was hit.
system.cpu1.dcache.tags.occ_blocks::.cpu1.data    31.411824                       # Average occupied blocks per requestor
system.cpu1.dcache.tags.occ_percent::.cpu1.data     0.981619                       # Average percentage of cache occupancy
system.cpu1.dcache.tags.occ_percent::total     0.981619                       # Average percentage of cache occupancy
system.cpu1.dcache.tags.occ_task_id_blocks::1024           29                       # Occupied blocks per task id
system.cpu1.dcache.tags.age_task_id_blocks_1024::1           29                       # Occupied blocks per task id
system.cpu1.dcache.tags.occ_task_id_percent::1024     0.906250                       # Percentage of cache occupancy per task id
system.cpu1.dcache.tags.tag_accesses         25400061                       # Number of tag accesses
system.cpu1.dcache.tags.data_accesses        25400061                       # Number of data accesses
system.cpu_clk_domain.clock                       500                       # Clock period in ticks
system.tol2bus.pwrStateResidencyTicks::UNDEFINED  44788291500                       # Cumulative time (in ticks) in various power states
system.tol2bus.trans_dist::ReadResp           1688575                       # Transaction distribution
system.tol2bus.trans_dist::ReadRespWithInvalidate           10                       # Transaction distribution
system.tol2bus.trans_dist::WritebackDirty      1870036                       # Transaction distribution
system.tol2bus.trans_dist::WritebackClean      1217691                       # Transaction distribution
system.tol2bus.trans_dist::CleanEvict         3687268                       # Transaction distribution
system.tol2bus.trans_dist::HardPFReq          1477041                       # Transaction distribution
system.tol2bus.trans_dist::UpgradeReq            4928                       # Transaction distribution
system.tol2bus.trans_dist::SCUpgradeReq          3624                       # Transaction distribution
system.tol2bus.trans_dist::UpgradeResp           8552                       # Transaction distribution
system.tol2bus.trans_dist::SCUpgradeFailReq          173                       # Transaction distribution
system.tol2bus.trans_dist::UpgradeFailResp          173                       # Transaction distribution
system.tol2bus.trans_dist::ReadExReq           479183                       # Transaction distribution
system.tol2bus.trans_dist::ReadExResp          479183                       # Transaction distribution
system.tol2bus.trans_dist::ReadCleanReq        119774                       # Transaction distribution
system.tol2bus.trans_dist::ReadSharedReq      1568810                       # Transaction distribution
system.tol2bus.trans_dist::InvalidateReq         3175                       # Transaction distribution
system.tol2bus.trans_dist::InvalidateResp         3175                       # Transaction distribution
system.tol2bus.pkt_count_system.cpu0.icache.mem_side::system.l2.cpu_side       218495                       # Packet count per connected master and slave (bytes)
system.tol2bus.pkt_count_system.cpu0.dcache.mem_side::system.l2.cpu_side      1653085                       # Packet count per connected master and slave (bytes)
system.tol2bus.pkt_count_system.cpu1.icache.mem_side::system.l2.cpu_side        46653                       # Packet count per connected master and slave (bytes)
system.tol2bus.pkt_count_system.cpu1.dcache.mem_side::system.l2.cpu_side      1484127                       # Packet count per connected master and slave (bytes)
system.tol2bus.pkt_count_system.cpu2.icache.mem_side::system.l2.cpu_side        47781                       # Packet count per connected master and slave (bytes)
system.tol2bus.pkt_count_system.cpu2.dcache.mem_side::system.l2.cpu_side      1499309                       # Packet count per connected master and slave (bytes)
system.tol2bus.pkt_count_system.cpu3.icache.mem_side::system.l2.cpu_side        46395                       # Packet count per connected master and slave (bytes)
system.tol2bus.pkt_count_system.cpu3.dcache.mem_side::system.l2.cpu_side      1498563                       # Packet count per connected master and slave (bytes)
system.tol2bus.pkt_count::total               6494408                       # Packet count per connected master and slave (bytes)
system.tol2bus.pkt_size_system.cpu0.icache.mem_side::system.l2.cpu_side      9322496                       # Cumulative packet size per connected master and slave (bytes)
system.tol2bus.pkt_size_system.cpu0.dcache.mem_side::system.l2.cpu_side     70065216                       # Cumulative packet size per connected master and slave (bytes)
system.tol2bus.pkt_size_system.cpu1.icache.mem_side::system.l2.cpu_side      1990528                       # Cumulative packet size per connected master and slave (bytes)
system.tol2bus.pkt_size_system.cpu1.dcache.mem_side::system.l2.cpu_side     63058048                       # Cumulative packet size per connected master and slave (bytes)
system.tol2bus.pkt_size_system.cpu2.icache.mem_side::system.l2.cpu_side      2038656                       # Cumulative packet size per connected master and slave (bytes)
system.tol2bus.pkt_size_system.cpu2.dcache.mem_side::system.l2.cpu_side     63695616                       # Cumulative packet size per connected master and slave (bytes)
system.tol2bus.pkt_size_system.cpu3.icache.mem_side::system.l2.cpu_side      1979520                       # Cumulative packet size per connected master and slave (bytes)
system.tol2bus.pkt_size_system.cpu3.dcache.mem_side::system.l2.cpu_side     63664960                       # Cumulative packet size per connected master and slave (bytes)
system.tol2bus.pkt_size::total              275815040                       # Cumulative packet size per connected master and slave (bytes)
system.tol2bus.snoops                         6116963                       # Total snoops (count)
system.tol2bus.snoopTraffic                  60547712                       # Total snoop traffic (bytes)
system.tol2bus.snoop_fanout::samples          8277084                       # Request fanout histogram
system.tol2bus.snoop_fanout::mean            0.261547                       # Request fanout histogram
system.tol2bus.snoop_fanout::stdev           0.499857                       # Request fanout histogram
system.tol2bus.snoop_fanout::underflows             0      0.00%      0.00% # Request fanout histogram
system.tol2bus.snoop_fanout::0                6265329     75.69%     75.69% # Request fanout histogram
system.tol2bus.snoop_fanout::1                1925482     23.26%     98.96% # Request fanout histogram
system.tol2bus.snoop_fanout::2                  34280      0.41%     99.37% # Request fanout histogram
system.tol2bus.snoop_fanout::3                  37171      0.45%     99.82% # Request fanout histogram
system.tol2bus.snoop_fanout::4                  14822      0.18%    100.00% # Request fanout histogram
system.tol2bus.snoop_fanout::5                      0      0.00%    100.00% # Request fanout histogram
system.tol2bus.snoop_fanout::6                      0      0.00%    100.00% # Request fanout histogram
system.tol2bus.snoop_fanout::7                      0      0.00%    100.00% # Request fanout histogram
system.tol2bus.snoop_fanout::8                      0      0.00%    100.00% # Request fanout histogram
system.tol2bus.snoop_fanout::overflows              0      0.00%    100.00% # Request fanout histogram
system.tol2bus.snoop_fanout::min_value              0                       # Request fanout histogram
system.tol2bus.snoop_fanout::max_value              4                       # Request fanout histogram
system.tol2bus.snoop_fanout::total            8277084                       # Request fanout histogram
system.tol2bus.reqLayer0.occupancy         4325752028                       # Layer occupancy (ticks)
system.tol2bus.reqLayer0.utilization              9.7                       # Layer utilization (%)
system.tol2bus.respLayer5.occupancy         754190794                       # Layer occupancy (ticks)
system.tol2bus.respLayer5.utilization             1.7                       # Layer utilization (%)
system.tol2bus.respLayer4.occupancy          25716474                       # Layer occupancy (ticks)
system.tol2bus.respLayer4.utilization             0.1                       # Layer utilization (%)
system.tol2bus.respLayer7.occupancy         753654967                       # Layer occupancy (ticks)
system.tol2bus.respLayer7.utilization             1.7                       # Layer utilization (%)
system.tol2bus.respLayer6.occupancy          24946224                       # Layer occupancy (ticks)
system.tol2bus.respLayer6.utilization             0.1                       # Layer utilization (%)
system.tol2bus.respLayer1.occupancy         826573556                       # Layer occupancy (ticks)
system.tol2bus.respLayer1.utilization             1.8                       # Layer utilization (%)
system.tol2bus.respLayer0.occupancy         109474943                       # Layer occupancy (ticks)
system.tol2bus.respLayer0.utilization             0.2                       # Layer utilization (%)
system.tol2bus.respLayer3.occupancy         746328244                       # Layer occupancy (ticks)
system.tol2bus.respLayer3.utilization             1.7                       # Layer utilization (%)
system.tol2bus.respLayer2.occupancy          25074293                       # Layer occupancy (ticks)
system.tol2bus.respLayer2.utilization             0.1                       # Layer utilization (%)

---------- End Simulation Statistics   ----------
