
---------- Begin Simulation Statistics ----------
final_tick                               1332553979500                       # Number of ticks from beginning of simulation (restored from checkpoints and never reset)
host_inst_rate                                  59436                       # Simulator instruction rate (inst/s)
host_mem_usage                                 701532                       # Number of bytes of host memory used
host_op_rate                                    59631                       # Simulator op (including micro ops) rate (op/s)
host_seconds                                 18606.59                       # Real time elapsed on the host
host_tick_rate                               71617299                       # Simulator tick rate (ticks/s)
sim_freq                                 1000000000000                       # Frequency of simulated ticks
sim_insts                                  1105895942                       # Number of instructions simulated
sim_ops                                    1109521304                       # Number of ops (including micro ops) simulated
sim_seconds                                  1.332554                       # Number of seconds simulated
sim_ticks                                1332553979500                       # Number of ticks simulated
system.cpu0.branchPred.BTBCorrect                   0                       # Number of correct BTB predictions (this stat may not work properly.
system.cpu0.branchPred.BTBHitPct            88.091333                       # BTB Hit Percentage
system.cpu0.branchPred.BTBHits              141376149                       # Number of BTB hits
system.cpu0.branchPred.BTBLookups           160488148                       # Number of BTB lookups
system.cpu0.branchPred.RASInCorrect                 0                       # Number of incorrect RAS predictions.
system.cpu0.branchPred.condIncorrect         14607196                       # Number of conditional branches incorrect
system.cpu0.branchPred.condPredicted        220262475                       # Number of conditional branches predicted
system.cpu0.branchPred.indirectHits          18758301                       # Number of indirect target hits.
system.cpu0.branchPred.indirectLookups       18883896                       # Number of indirect predictor lookups.
system.cpu0.branchPred.indirectMisses          125595                       # Number of indirect misses.
system.cpu0.branchPred.lookups              280668698                       # Number of BP lookups
system.cpu0.branchPred.usedRAS                      0                       # Number of times the RAS was used to get a target.
system.cpu0.branchPredindirectMispredicted      1859542                       # Number of mispredicted indirect branches.
system.cpu0.commit.amos                       1811474                       # Number of atomic instructions committed
system.cpu0.commit.branchMispredicts          9414097                       # The number of times a branch was mispredicted
system.cpu0.commit.branches                 260697738                       # Number of branches committed
system.cpu0.commit.bw_lim_events             26970334                       # number cycles where commit BW limit reached
system.cpu0.commit.commitNonSpecStalls        5441379                       # The number of times commit has been forced to stall to communicate backwards
system.cpu0.commit.commitSquashedInsts       54314192                       # The number of squashed insts skipped by commit
system.cpu0.commit.committedInsts          1050812542                       # Number of instructions committed
system.cpu0.commit.committedOps            1052626531                       # Number of ops (including micro ops) committed
system.cpu0.commit.committed_per_cycle::samples   1814816482                       # Number of insts commited each cycle
system.cpu0.commit.committed_per_cycle::mean     0.580018                       # Number of insts commited each cycle
system.cpu0.commit.committed_per_cycle::stdev     1.342207                       # Number of insts commited each cycle
system.cpu0.commit.committed_per_cycle::underflows            0      0.00%      0.00% # Number of insts commited each cycle
system.cpu0.commit.committed_per_cycle::0   1308335365     72.09%     72.09% # Number of insts commited each cycle
system.cpu0.commit.committed_per_cycle::1    300726896     16.57%     88.66% # Number of insts commited each cycle
system.cpu0.commit.committed_per_cycle::2     71525454      3.94%     92.60% # Number of insts commited each cycle
system.cpu0.commit.committed_per_cycle::3     67620226      3.73%     96.33% # Number of insts commited each cycle
system.cpu0.commit.committed_per_cycle::4     22392915      1.23%     97.56% # Number of insts commited each cycle
system.cpu0.commit.committed_per_cycle::5      7988745      0.44%     98.00% # Number of insts commited each cycle
system.cpu0.commit.committed_per_cycle::6      4085837      0.23%     98.23% # Number of insts commited each cycle
system.cpu0.commit.committed_per_cycle::7      5170710      0.28%     98.51% # Number of insts commited each cycle
system.cpu0.commit.committed_per_cycle::8     26970334      1.49%    100.00% # Number of insts commited each cycle
system.cpu0.commit.committed_per_cycle::overflows            0      0.00%    100.00% # Number of insts commited each cycle
system.cpu0.commit.committed_per_cycle::min_value            0                       # Number of insts commited each cycle
system.cpu0.commit.committed_per_cycle::max_value            8                       # Number of insts commited each cycle
system.cpu0.commit.committed_per_cycle::total   1814816482                       # Number of insts commited each cycle
system.cpu0.commit.fp_insts                        50                       # Number of committed floating point instructions.
system.cpu0.commit.function_calls            20857978                       # Number of function calls committed.
system.cpu0.commit.int_insts               1016000369                       # Number of committed integer instructions.
system.cpu0.commit.loads                    326227575                       # Number of loads committed
system.cpu0.commit.membars                    3625344                       # Number of memory barriers committed
system.cpu0.commit.op_class_0::No_OpClass      3625350      0.34%      0.34% # Class of committed instruction
system.cpu0.commit.op_class_0::IntAlu       583955864     55.48%     55.82% # Class of committed instruction
system.cpu0.commit.op_class_0::IntMult        8031601      0.76%     56.58% # Class of committed instruction
system.cpu0.commit.op_class_0::IntDiv         1811037      0.17%     56.76% # Class of committed instruction
system.cpu0.commit.op_class_0::FloatAdd             0      0.00%     56.76% # Class of committed instruction
system.cpu0.commit.op_class_0::FloatCmp             4      0.00%     56.76% # Class of committed instruction
system.cpu0.commit.op_class_0::FloatCvt            12      0.00%     56.76% # Class of committed instruction
system.cpu0.commit.op_class_0::FloatMult            0      0.00%     56.76% # Class of committed instruction
system.cpu0.commit.op_class_0::FloatMultAcc            0      0.00%     56.76% # Class of committed instruction
system.cpu0.commit.op_class_0::FloatDiv             2      0.00%     56.76% # Class of committed instruction
system.cpu0.commit.op_class_0::FloatMisc            4      0.00%     56.76% # Class of committed instruction
system.cpu0.commit.op_class_0::FloatSqrt            0      0.00%     56.76% # Class of committed instruction
system.cpu0.commit.op_class_0::SimdAdd              0      0.00%     56.76% # Class of committed instruction
system.cpu0.commit.op_class_0::SimdAddAcc            0      0.00%     56.76% # Class of committed instruction
system.cpu0.commit.op_class_0::SimdAlu              0      0.00%     56.76% # Class of committed instruction
system.cpu0.commit.op_class_0::SimdCmp              0      0.00%     56.76% # Class of committed instruction
system.cpu0.commit.op_class_0::SimdCvt              0      0.00%     56.76% # Class of committed instruction
system.cpu0.commit.op_class_0::SimdMisc             0      0.00%     56.76% # Class of committed instruction
system.cpu0.commit.op_class_0::SimdMult             0      0.00%     56.76% # Class of committed instruction
system.cpu0.commit.op_class_0::SimdMultAcc            0      0.00%     56.76% # Class of committed instruction
system.cpu0.commit.op_class_0::SimdShift            0      0.00%     56.76% # Class of committed instruction
system.cpu0.commit.op_class_0::SimdShiftAcc            0      0.00%     56.76% # Class of committed instruction
system.cpu0.commit.op_class_0::SimdDiv              0      0.00%     56.76% # Class of committed instruction
system.cpu0.commit.op_class_0::SimdSqrt             0      0.00%     56.76% # Class of committed instruction
system.cpu0.commit.op_class_0::SimdFloatAdd            0      0.00%     56.76% # Class of committed instruction
system.cpu0.commit.op_class_0::SimdFloatAlu            0      0.00%     56.76% # Class of committed instruction
system.cpu0.commit.op_class_0::SimdFloatCmp            0      0.00%     56.76% # Class of committed instruction
system.cpu0.commit.op_class_0::SimdFloatCvt            0      0.00%     56.76% # Class of committed instruction
system.cpu0.commit.op_class_0::SimdFloatDiv            0      0.00%     56.76% # Class of committed instruction
system.cpu0.commit.op_class_0::SimdFloatMisc            0      0.00%     56.76% # Class of committed instruction
system.cpu0.commit.op_class_0::SimdFloatMult            0      0.00%     56.76% # Class of committed instruction
system.cpu0.commit.op_class_0::SimdFloatMultAcc            0      0.00%     56.76% # Class of committed instruction
system.cpu0.commit.op_class_0::SimdFloatSqrt            0      0.00%     56.76% # Class of committed instruction
system.cpu0.commit.op_class_0::SimdReduceAdd            0      0.00%     56.76% # Class of committed instruction
system.cpu0.commit.op_class_0::SimdReduceAlu            0      0.00%     56.76% # Class of committed instruction
system.cpu0.commit.op_class_0::SimdReduceCmp            0      0.00%     56.76% # Class of committed instruction
system.cpu0.commit.op_class_0::SimdFloatReduceAdd            0      0.00%     56.76% # Class of committed instruction
system.cpu0.commit.op_class_0::SimdFloatReduceCmp            0      0.00%     56.76% # Class of committed instruction
system.cpu0.commit.op_class_0::SimdAes              0      0.00%     56.76% # Class of committed instruction
system.cpu0.commit.op_class_0::SimdAesMix            0      0.00%     56.76% # Class of committed instruction
system.cpu0.commit.op_class_0::SimdSha1Hash            0      0.00%     56.76% # Class of committed instruction
system.cpu0.commit.op_class_0::SimdSha1Hash2            0      0.00%     56.76% # Class of committed instruction
system.cpu0.commit.op_class_0::SimdSha256Hash            0      0.00%     56.76% # Class of committed instruction
system.cpu0.commit.op_class_0::SimdSha256Hash2            0      0.00%     56.76% # Class of committed instruction
system.cpu0.commit.op_class_0::SimdShaSigma2            0      0.00%     56.76% # Class of committed instruction
system.cpu0.commit.op_class_0::SimdShaSigma3            0      0.00%     56.76% # Class of committed instruction
system.cpu0.commit.op_class_0::SimdPredAlu            0      0.00%     56.76% # Class of committed instruction
system.cpu0.commit.op_class_0::MemRead      328039041     31.16%     87.92% # Class of committed instruction
system.cpu0.commit.op_class_0::MemWrite     127163588     12.08%    100.00% # Class of committed instruction
system.cpu0.commit.op_class_0::FloatMemRead            8      0.00%    100.00% # Class of committed instruction
system.cpu0.commit.op_class_0::FloatMemWrite           20      0.00%    100.00% # Class of committed instruction
system.cpu0.commit.op_class_0::IprAccess            0      0.00%    100.00% # Class of committed instruction
system.cpu0.commit.op_class_0::InstPrefetch            0      0.00%    100.00% # Class of committed instruction
system.cpu0.commit.op_class_0::total       1052626531                       # Class of committed instruction
system.cpu0.commit.refs                     455202657                       # Number of memory references committed
system.cpu0.commit.swp_count                        0                       # Number of s/w prefetches committed
system.cpu0.commit.vec_insts                        0                       # Number of committed Vector instructions.
system.cpu0.committedInsts                 1050812542                       # Number of Instructions Simulated
system.cpu0.committedOps                   1052626531                       # Number of Ops (including micro ops) Simulated
system.cpu0.cpi                              2.530851                       # CPI: Cycles Per Instruction
system.cpu0.cpi_total                        2.530851                       # CPI: Total CPI of All Threads
system.cpu0.decode.BlockedCycles            344884143                       # Number of cycles decode is blocked
system.cpu0.decode.BranchMispred              5201016                       # Number of times decode detected a branch misprediction
system.cpu0.decode.BranchResolved           139897175                       # Number of times decode resolved a branch
system.cpu0.decode.DecodedInsts            1127313476                       # Number of instructions handled by decode
system.cpu0.decode.IdleCycles               702029731                       # Number of cycles decode is idle
system.cpu0.decode.RunCycles                767316502                       # Number of cycles decode is running
system.cpu0.decode.SquashCycles               9421217                       # Number of cycles decode is squashing
system.cpu0.decode.SquashedInsts             14528444                       # Number of squashed instructions handled by decode
system.cpu0.decode.UnblockCycles              5157556                       # Number of cycles decode is unblocking
system.cpu0.dtb.accesses                            0                       # DTB accesses
system.cpu0.dtb.hits                                0                       # DTB hits
system.cpu0.dtb.misses                              0                       # DTB misses
system.cpu0.dtb.read_accesses                       0                       # DTB read accesses
system.cpu0.dtb.read_hits                           0                       # DTB read hits
system.cpu0.dtb.read_misses                         0                       # DTB read misses
system.cpu0.dtb.write_accesses                      0                       # DTB write accesses
system.cpu0.dtb.write_hits                          0                       # DTB write hits
system.cpu0.dtb.write_misses                        0                       # DTB write misses
system.cpu0.fetch.Branches                  280668698                       # Number of branches that fetch encountered
system.cpu0.fetch.CacheLines                189464934                       # Number of cache lines fetched
system.cpu0.fetch.Cycles                   1127494800                       # Number of cycles fetch has run and was not squashing or blocked
system.cpu0.fetch.IcacheSquashes              5474500                       # Number of outstanding Icache misses that were squashed
system.cpu0.fetch.IcacheWaitRetryStallCycles          105                       # Number of stall cycles due to full MSHR
system.cpu0.fetch.Insts                    1151119171                       # Number of instructions fetch has processed
system.cpu0.fetch.MiscStallCycles                  24                       # Number of cycles fetch has spent waiting on interrupts, or bad addresses, or out of MSHRs
system.cpu0.fetch.PendingTrapStallCycles           91                       # Number of stall cycles due to pending traps
system.cpu0.fetch.SquashCycles               29228662                       # Number of cycles fetch has spent squashing
system.cpu0.fetch.branchRate                 0.105536                       # Number of branch fetches per cycle
system.cpu0.fetch.icacheStallCycles         686699798                       # Number of cycles fetch is stalled on an Icache miss
system.cpu0.fetch.predictedBranches         160134450                       # Number of branches that fetch has predicted taken
system.cpu0.fetch.rate                       0.432841                       # Number of inst fetches per cycle
system.cpu0.fetch.rateDist::samples        1828809149                       # Number of instructions fetched each cycle (Total)
system.cpu0.fetch.rateDist::mean             0.630429                       # Number of instructions fetched each cycle (Total)
system.cpu0.fetch.rateDist::stdev            0.912188                       # Number of instructions fetched each cycle (Total)
system.cpu0.fetch.rateDist::underflows              0      0.00%      0.00% # Number of instructions fetched each cycle (Total)
system.cpu0.fetch.rateDist::0              1026718864     56.14%     56.14% # Number of instructions fetched each cycle (Total)
system.cpu0.fetch.rateDist::1               589650938     32.24%     88.38% # Number of instructions fetched each cycle (Total)
system.cpu0.fetch.rateDist::2               109338566      5.98%     94.36% # Number of instructions fetched each cycle (Total)
system.cpu0.fetch.rateDist::3                79165067      4.33%     98.69% # Number of instructions fetched each cycle (Total)
system.cpu0.fetch.rateDist::4                18686116      1.02%     99.71% # Number of instructions fetched each cycle (Total)
system.cpu0.fetch.rateDist::5                 2980581      0.16%     99.88% # Number of instructions fetched each cycle (Total)
system.cpu0.fetch.rateDist::6                  343460      0.02%     99.89% # Number of instructions fetched each cycle (Total)
system.cpu0.fetch.rateDist::7                     631      0.00%     99.89% # Number of instructions fetched each cycle (Total)
system.cpu0.fetch.rateDist::8                 1924926      0.11%    100.00% # Number of instructions fetched each cycle (Total)
system.cpu0.fetch.rateDist::overflows               0      0.00%    100.00% # Number of instructions fetched each cycle (Total)
system.cpu0.fetch.rateDist::min_value               0                       # Number of instructions fetched each cycle (Total)
system.cpu0.fetch.rateDist::max_value               8                       # Number of instructions fetched each cycle (Total)
system.cpu0.fetch.rateDist::total          1828809149                       # Number of instructions fetched each cycle (Total)
system.cpu0.fp_regfile_reads                       44                       # number of floating regfile reads
system.cpu0.fp_regfile_writes                      24                       # number of floating regfile writes
system.cpu0.idleCycles                      830640630                       # Total number of cycles that the CPU has spent unscheduled due to idling
system.cpu0.iew.branchMispredicts             9572590                       # Number of branch mispredicts detected at execute
system.cpu0.iew.exec_branches               267786421                       # Number of branches executed
system.cpu0.iew.exec_nop                            0                       # number of nop insts executed
system.cpu0.iew.exec_rate                    0.412751                       # Inst execution rate
system.cpu0.iew.exec_refs                   482239560                       # number of memory reference insts executed
system.cpu0.iew.exec_stores                 132920479                       # Number of stores executed
system.cpu0.iew.exec_swp                            0                       # number of swp insts executed
system.cpu0.iew.iewBlockCycles              286668413                       # Number of cycles IEW is blocking
system.cpu0.iew.iewDispLoadInsts            349275407                       # Number of dispatched load instructions
system.cpu0.iew.iewDispNonSpecInsts           1816857                       # Number of dispatched non-speculative instructions
system.cpu0.iew.iewDispSquashedInsts          4333381                       # Number of squashed instructions skipped by dispatch
system.cpu0.iew.iewDispStoreInsts           134041869                       # Number of dispatched store instructions
system.cpu0.iew.iewDispatchedInsts         1106922636                       # Number of instructions dispatched to IQ
system.cpu0.iew.iewExecLoadInsts            349319081                       # Number of load instructions executed
system.cpu0.iew.iewExecSquashedInsts          6569831                       # Number of squashed instructions skipped in execute
system.cpu0.iew.iewExecutedInsts           1097691541                       # Number of executed instructions
system.cpu0.iew.iewIQFullEvents               1681880                       # Number of times the IQ has become full, causing a stall
system.cpu0.iew.iewIdleCycles                       0                       # Number of cycles IEW is idle
system.cpu0.iew.iewLSQFullEvents              2512309                       # Number of times the LSQ has become full, causing a stall
system.cpu0.iew.iewSquashCycles               9421217                       # Number of cycles IEW is squashing
system.cpu0.iew.iewUnblockCycles              6182033                       # Number of cycles IEW is unblocking
system.cpu0.iew.lsq.thread0.blockedLoads            0                       # Number of blocked loads due to partial load-store forwarding
system.cpu0.iew.lsq.thread0.cacheBlocked       135531                       # Number of times an access to memory failed due to the cache being blocked
system.cpu0.iew.lsq.thread0.forwLoads        17322330                       # Number of loads that had data forwarded from stores
system.cpu0.iew.lsq.thread0.ignoredResponses        77128                       # Number of memory responses ignored because the instruction is squashed
system.cpu0.iew.lsq.thread0.invAddrLoads            0                       # Number of loads ignored due to an invalid address
system.cpu0.iew.lsq.thread0.invAddrSwpfs            0                       # Number of software prefetches ignored due to an invalid address
system.cpu0.iew.lsq.thread0.memOrderViolation         7443                       # Number of memory ordering violations
system.cpu0.iew.lsq.thread0.rescheduledLoads      4256981                       # Number of loads that were rescheduled
system.cpu0.iew.lsq.thread0.squashedLoads     23047832                       # Number of loads squashed
system.cpu0.iew.lsq.thread0.squashedStores      5066787                       # Number of stores squashed
system.cpu0.iew.memOrderViolationEvents          7443                       # Number of memory order violations
system.cpu0.iew.predictedNotTakenIncorrect      1198274                       # Number of branches that were predicted not taken incorrectly
system.cpu0.iew.predictedTakenIncorrect       8374316                       # Number of branches that were predicted taken incorrectly
system.cpu0.iew.wb_consumers                498313647                       # num instructions consuming a value
system.cpu0.iew.wb_count                   1087964775                       # cumulative count of insts written-back
system.cpu0.iew.wb_fanout                    0.836610                       # average fanout of values written-back
system.cpu0.iew.wb_producers                416894259                       # num instructions producing a value
system.cpu0.iew.wb_rate                      0.409094                       # insts written-back per cycle
system.cpu0.iew.wb_sent                    1088051574                       # cumulative count of insts sent to commit
system.cpu0.int_regfile_reads              1341909984                       # number of integer regfile reads
system.cpu0.int_regfile_writes              695167566                       # number of integer regfile writes
system.cpu0.ipc                              0.395124                       # IPC: Instructions Per Cycle
system.cpu0.ipc_total                        0.395124                       # IPC: Total IPC of All Threads
system.cpu0.iq.FU_type_0::No_OpClass          3626832      0.33%      0.33% # Type of FU issued
system.cpu0.iq.FU_type_0::IntAlu            605494166     54.83%     55.16% # Type of FU issued
system.cpu0.iq.FU_type_0::IntMult             8139969      0.74%     55.90% # Type of FU issued
system.cpu0.iq.FU_type_0::IntDiv              1811523      0.16%     56.06% # Type of FU issued
system.cpu0.iq.FU_type_0::FloatAdd                  0      0.00%     56.06% # Type of FU issued
system.cpu0.iq.FU_type_0::FloatCmp                  4      0.00%     56.06% # Type of FU issued
system.cpu0.iq.FU_type_0::FloatCvt                 12      0.00%     56.06% # Type of FU issued
system.cpu0.iq.FU_type_0::FloatMult                 0      0.00%     56.06% # Type of FU issued
system.cpu0.iq.FU_type_0::FloatMultAcc              0      0.00%     56.06% # Type of FU issued
system.cpu0.iq.FU_type_0::FloatDiv                  2      0.00%     56.06% # Type of FU issued
system.cpu0.iq.FU_type_0::FloatMisc                 4      0.00%     56.06% # Type of FU issued
system.cpu0.iq.FU_type_0::FloatSqrt                 0      0.00%     56.06% # Type of FU issued
system.cpu0.iq.FU_type_0::SimdAdd                   0      0.00%     56.06% # Type of FU issued
system.cpu0.iq.FU_type_0::SimdAddAcc                0      0.00%     56.06% # Type of FU issued
system.cpu0.iq.FU_type_0::SimdAlu                   0      0.00%     56.06% # Type of FU issued
system.cpu0.iq.FU_type_0::SimdCmp                   0      0.00%     56.06% # Type of FU issued
system.cpu0.iq.FU_type_0::SimdCvt                   0      0.00%     56.06% # Type of FU issued
system.cpu0.iq.FU_type_0::SimdMisc                  0      0.00%     56.06% # Type of FU issued
system.cpu0.iq.FU_type_0::SimdMult                  0      0.00%     56.06% # Type of FU issued
system.cpu0.iq.FU_type_0::SimdMultAcc               0      0.00%     56.06% # Type of FU issued
system.cpu0.iq.FU_type_0::SimdShift                 0      0.00%     56.06% # Type of FU issued
system.cpu0.iq.FU_type_0::SimdShiftAcc              0      0.00%     56.06% # Type of FU issued
system.cpu0.iq.FU_type_0::SimdDiv                   0      0.00%     56.06% # Type of FU issued
system.cpu0.iq.FU_type_0::SimdSqrt                  0      0.00%     56.06% # Type of FU issued
system.cpu0.iq.FU_type_0::SimdFloatAdd              0      0.00%     56.06% # Type of FU issued
system.cpu0.iq.FU_type_0::SimdFloatAlu              0      0.00%     56.06% # Type of FU issued
system.cpu0.iq.FU_type_0::SimdFloatCmp              0      0.00%     56.06% # Type of FU issued
system.cpu0.iq.FU_type_0::SimdFloatCvt              0      0.00%     56.06% # Type of FU issued
system.cpu0.iq.FU_type_0::SimdFloatDiv              0      0.00%     56.06% # Type of FU issued
system.cpu0.iq.FU_type_0::SimdFloatMisc             0      0.00%     56.06% # Type of FU issued
system.cpu0.iq.FU_type_0::SimdFloatMult             0      0.00%     56.06% # Type of FU issued
system.cpu0.iq.FU_type_0::SimdFloatMultAcc            0      0.00%     56.06% # Type of FU issued
system.cpu0.iq.FU_type_0::SimdFloatSqrt             0      0.00%     56.06% # Type of FU issued
system.cpu0.iq.FU_type_0::SimdReduceAdd             0      0.00%     56.06% # Type of FU issued
system.cpu0.iq.FU_type_0::SimdReduceAlu             0      0.00%     56.06% # Type of FU issued
system.cpu0.iq.FU_type_0::SimdReduceCmp             0      0.00%     56.06% # Type of FU issued
system.cpu0.iq.FU_type_0::SimdFloatReduceAdd            0      0.00%     56.06% # Type of FU issued
system.cpu0.iq.FU_type_0::SimdFloatReduceCmp            0      0.00%     56.06% # Type of FU issued
system.cpu0.iq.FU_type_0::SimdAes                   0      0.00%     56.06% # Type of FU issued
system.cpu0.iq.FU_type_0::SimdAesMix                0      0.00%     56.06% # Type of FU issued
system.cpu0.iq.FU_type_0::SimdSha1Hash              0      0.00%     56.06% # Type of FU issued
system.cpu0.iq.FU_type_0::SimdSha1Hash2             0      0.00%     56.06% # Type of FU issued
system.cpu0.iq.FU_type_0::SimdSha256Hash            0      0.00%     56.06% # Type of FU issued
system.cpu0.iq.FU_type_0::SimdSha256Hash2            0      0.00%     56.06% # Type of FU issued
system.cpu0.iq.FU_type_0::SimdShaSigma2             0      0.00%     56.06% # Type of FU issued
system.cpu0.iq.FU_type_0::SimdShaSigma3             0      0.00%     56.06% # Type of FU issued
system.cpu0.iq.FU_type_0::SimdPredAlu               0      0.00%     56.06% # Type of FU issued
system.cpu0.iq.FU_type_0::MemRead           353703984     32.03%     88.09% # Type of FU issued
system.cpu0.iq.FU_type_0::MemWrite          131484844     11.91%    100.00% # Type of FU issued
system.cpu0.iq.FU_type_0::FloatMemRead             12      0.00%    100.00% # Type of FU issued
system.cpu0.iq.FU_type_0::FloatMemWrite            20      0.00%    100.00% # Type of FU issued
system.cpu0.iq.FU_type_0::IprAccess                 0      0.00%    100.00% # Type of FU issued
system.cpu0.iq.FU_type_0::InstPrefetch              0      0.00%    100.00% # Type of FU issued
system.cpu0.iq.FU_type_0::total            1104261372                       # Type of FU issued
system.cpu0.iq.fp_alu_accesses                     58                       # Number of floating point alu accesses
system.cpu0.iq.fp_inst_queue_reads                112                       # Number of floating instruction queue reads
system.cpu0.iq.fp_inst_queue_wakeup_accesses           52                       # Number of floating instruction queue wakeup accesses
system.cpu0.iq.fp_inst_queue_writes                58                       # Number of floating instruction queue writes
system.cpu0.iq.fu_busy_cnt                    2285243                       # FU busy when requested
system.cpu0.iq.fu_busy_rate                  0.002069                       # FU busy rate (busy events/executed inst)
system.cpu0.iq.fu_full::No_OpClass                  0      0.00%      0.00% # attempts to use FU when none available
system.cpu0.iq.fu_full::IntAlu                 440544     19.28%     19.28% # attempts to use FU when none available
system.cpu0.iq.fu_full::IntMult                     9      0.00%     19.28% # attempts to use FU when none available
system.cpu0.iq.fu_full::IntDiv                      0      0.00%     19.28% # attempts to use FU when none available
system.cpu0.iq.fu_full::FloatAdd                    0      0.00%     19.28% # attempts to use FU when none available
system.cpu0.iq.fu_full::FloatCmp                    0      0.00%     19.28% # attempts to use FU when none available
system.cpu0.iq.fu_full::FloatCvt                    0      0.00%     19.28% # attempts to use FU when none available
system.cpu0.iq.fu_full::FloatMult                   0      0.00%     19.28% # attempts to use FU when none available
system.cpu0.iq.fu_full::FloatMultAcc                0      0.00%     19.28% # attempts to use FU when none available
system.cpu0.iq.fu_full::FloatDiv                    0      0.00%     19.28% # attempts to use FU when none available
system.cpu0.iq.fu_full::FloatMisc                   0      0.00%     19.28% # attempts to use FU when none available
system.cpu0.iq.fu_full::FloatSqrt                   0      0.00%     19.28% # attempts to use FU when none available
system.cpu0.iq.fu_full::SimdAdd                     0      0.00%     19.28% # attempts to use FU when none available
system.cpu0.iq.fu_full::SimdAddAcc                  0      0.00%     19.28% # attempts to use FU when none available
system.cpu0.iq.fu_full::SimdAlu                     0      0.00%     19.28% # attempts to use FU when none available
system.cpu0.iq.fu_full::SimdCmp                     0      0.00%     19.28% # attempts to use FU when none available
system.cpu0.iq.fu_full::SimdCvt                     0      0.00%     19.28% # attempts to use FU when none available
system.cpu0.iq.fu_full::SimdMisc                    0      0.00%     19.28% # attempts to use FU when none available
system.cpu0.iq.fu_full::SimdMult                    0      0.00%     19.28% # attempts to use FU when none available
system.cpu0.iq.fu_full::SimdMultAcc                 0      0.00%     19.28% # attempts to use FU when none available
system.cpu0.iq.fu_full::SimdShift                   0      0.00%     19.28% # attempts to use FU when none available
system.cpu0.iq.fu_full::SimdShiftAcc                0      0.00%     19.28% # attempts to use FU when none available
system.cpu0.iq.fu_full::SimdDiv                     0      0.00%     19.28% # attempts to use FU when none available
system.cpu0.iq.fu_full::SimdSqrt                    0      0.00%     19.28% # attempts to use FU when none available
system.cpu0.iq.fu_full::SimdFloatAdd                0      0.00%     19.28% # attempts to use FU when none available
system.cpu0.iq.fu_full::SimdFloatAlu                0      0.00%     19.28% # attempts to use FU when none available
system.cpu0.iq.fu_full::SimdFloatCmp                0      0.00%     19.28% # attempts to use FU when none available
system.cpu0.iq.fu_full::SimdFloatCvt                0      0.00%     19.28% # attempts to use FU when none available
system.cpu0.iq.fu_full::SimdFloatDiv                0      0.00%     19.28% # attempts to use FU when none available
system.cpu0.iq.fu_full::SimdFloatMisc               0      0.00%     19.28% # attempts to use FU when none available
system.cpu0.iq.fu_full::SimdFloatMult               0      0.00%     19.28% # attempts to use FU when none available
system.cpu0.iq.fu_full::SimdFloatMultAcc            0      0.00%     19.28% # attempts to use FU when none available
system.cpu0.iq.fu_full::SimdFloatSqrt               0      0.00%     19.28% # attempts to use FU when none available
system.cpu0.iq.fu_full::SimdReduceAdd               0      0.00%     19.28% # attempts to use FU when none available
system.cpu0.iq.fu_full::SimdReduceAlu               0      0.00%     19.28% # attempts to use FU when none available
system.cpu0.iq.fu_full::SimdReduceCmp               0      0.00%     19.28% # attempts to use FU when none available
system.cpu0.iq.fu_full::SimdFloatReduceAdd            0      0.00%     19.28% # attempts to use FU when none available
system.cpu0.iq.fu_full::SimdFloatReduceCmp            0      0.00%     19.28% # attempts to use FU when none available
system.cpu0.iq.fu_full::SimdAes                     0      0.00%     19.28% # attempts to use FU when none available
system.cpu0.iq.fu_full::SimdAesMix                  0      0.00%     19.28% # attempts to use FU when none available
system.cpu0.iq.fu_full::SimdSha1Hash                0      0.00%     19.28% # attempts to use FU when none available
system.cpu0.iq.fu_full::SimdSha1Hash2               0      0.00%     19.28% # attempts to use FU when none available
system.cpu0.iq.fu_full::SimdSha256Hash              0      0.00%     19.28% # attempts to use FU when none available
system.cpu0.iq.fu_full::SimdSha256Hash2             0      0.00%     19.28% # attempts to use FU when none available
system.cpu0.iq.fu_full::SimdShaSigma2               0      0.00%     19.28% # attempts to use FU when none available
system.cpu0.iq.fu_full::SimdShaSigma3               0      0.00%     19.28% # attempts to use FU when none available
system.cpu0.iq.fu_full::SimdPredAlu                 0      0.00%     19.28% # attempts to use FU when none available
system.cpu0.iq.fu_full::MemRead               1604151     70.20%     89.47% # attempts to use FU when none available
system.cpu0.iq.fu_full::MemWrite               240535     10.53%    100.00% # attempts to use FU when none available
system.cpu0.iq.fu_full::FloatMemRead                0      0.00%    100.00% # attempts to use FU when none available
system.cpu0.iq.fu_full::FloatMemWrite               4      0.00%    100.00% # attempts to use FU when none available
system.cpu0.iq.fu_full::IprAccess                   0      0.00%    100.00% # attempts to use FU when none available
system.cpu0.iq.fu_full::InstPrefetch                0      0.00%    100.00% # attempts to use FU when none available
system.cpu0.iq.int_alu_accesses            1102919725                       # Number of integer alu accesses
system.cpu0.iq.int_inst_queue_reads        4039767421                       # Number of integer instruction queue reads
system.cpu0.iq.int_inst_queue_wakeup_accesses   1087964723                       # Number of integer instruction queue wakeup accesses
system.cpu0.iq.int_inst_queue_writes       1161225160                       # Number of integer instruction queue writes
system.cpu0.iq.iqInstsAdded                1101478719                       # Number of instructions added to the IQ (excludes non-spec)
system.cpu0.iq.iqInstsIssued               1104261372                       # Number of instructions issued
system.cpu0.iq.iqNonSpecInstsAdded            5443917                       # Number of non-speculative instructions added to the IQ
system.cpu0.iq.iqSquashedInstsExamined       54296102                       # Number of squashed instructions iterated over during squash; mainly for profiling
system.cpu0.iq.iqSquashedInstsIssued           150397                       # Number of squashed instructions issued
system.cpu0.iq.iqSquashedNonSpecRemoved          2538                       # Number of squashed non-spec instructions that were removed
system.cpu0.iq.iqSquashedOperandsExamined     18974647                       # Number of squashed operands that are examined and possibly removed from graph
system.cpu0.iq.issued_per_cycle::samples   1828809149                       # Number of insts issued each cycle
system.cpu0.iq.issued_per_cycle::mean        0.603814                       # Number of insts issued each cycle
system.cpu0.iq.issued_per_cycle::stdev       0.844461                       # Number of insts issued each cycle
system.cpu0.iq.issued_per_cycle::underflows            0      0.00%      0.00% # Number of insts issued each cycle
system.cpu0.iq.issued_per_cycle::0         1057046431     57.80%     57.80% # Number of insts issued each cycle
system.cpu0.iq.issued_per_cycle::1          521337225     28.51%     86.31% # Number of insts issued each cycle
system.cpu0.iq.issued_per_cycle::2          181845648      9.94%     96.25% # Number of insts issued each cycle
system.cpu0.iq.issued_per_cycle::3           58287670      3.19%     99.44% # Number of insts issued each cycle
system.cpu0.iq.issued_per_cycle::4            8575177      0.47%     99.91% # Number of insts issued each cycle
system.cpu0.iq.issued_per_cycle::5             681445      0.04%     99.94% # Number of insts issued each cycle
system.cpu0.iq.issued_per_cycle::6             716483      0.04%     99.98% # Number of insts issued each cycle
system.cpu0.iq.issued_per_cycle::7             189550      0.01%     99.99% # Number of insts issued each cycle
system.cpu0.iq.issued_per_cycle::8             129520      0.01%    100.00% # Number of insts issued each cycle
system.cpu0.iq.issued_per_cycle::overflows            0      0.00%    100.00% # Number of insts issued each cycle
system.cpu0.iq.issued_per_cycle::min_value            0                       # Number of insts issued each cycle
system.cpu0.iq.issued_per_cycle::max_value            8                       # Number of insts issued each cycle
system.cpu0.iq.issued_per_cycle::total     1828809149                       # Number of insts issued each cycle
system.cpu0.iq.rate                          0.415222                       # Inst issue rate
system.cpu0.iq.vec_alu_accesses                     0                       # Number of vector alu accesses
system.cpu0.iq.vec_inst_queue_reads                 0                       # Number of vector instruction queue reads
system.cpu0.iq.vec_inst_queue_wakeup_accesses            0                       # Number of vector instruction queue wakeup accesses
system.cpu0.iq.vec_inst_queue_writes                0                       # Number of vector instruction queue writes
system.cpu0.itb.accesses                            0                       # DTB accesses
system.cpu0.itb.hits                                0                       # DTB hits
system.cpu0.itb.misses                              0                       # DTB misses
system.cpu0.itb.read_accesses                       0                       # DTB read accesses
system.cpu0.itb.read_hits                           0                       # DTB read hits
system.cpu0.itb.read_misses                         0                       # DTB read misses
system.cpu0.itb.write_accesses                      0                       # DTB write accesses
system.cpu0.itb.write_hits                          0                       # DTB write hits
system.cpu0.itb.write_misses                        0                       # DTB write misses
system.cpu0.memDep0.conflictingLoads         16370906                       # Number of conflicting loads.
system.cpu0.memDep0.conflictingStores         2612989                       # Number of conflicting stores.
system.cpu0.memDep0.insertedLoads           349275407                       # Number of loads inserted to the mem dependence unit.
system.cpu0.memDep0.insertedStores          134041869                       # Number of stores inserted to the mem dependence unit.
system.cpu0.misc_regfile_reads                   1500                       # number of misc regfile reads
system.cpu0.misc_regfile_writes                    22                       # number of misc regfile writes
system.cpu0.numCycles                      2659449779                       # number of cpu cycles simulated
system.cpu0.numWorkItemsCompleted                   0                       # number of work items this cpu completed
system.cpu0.numWorkItemsStarted                     0                       # number of work items this cpu started
system.cpu0.quiesceCycles                     5658338                       # Total number of cycles that CPU has spent quiesced or waiting for an interrupt
system.cpu0.rename.BlockCycles              306776766                       # Number of cycles rename is blocking
system.cpu0.rename.CommittedMaps            670655147                       # Number of HB maps that are committed
system.cpu0.rename.IQFullEvents              12546862                       # Number of times rename has blocked due to IQ full
system.cpu0.rename.IdleCycles               711983347                       # Number of cycles rename is idle
system.cpu0.rename.LQFullEvents               7956606                       # Number of times rename has blocked due to LQ full
system.cpu0.rename.ROBFullEvents                50805                       # Number of times rename has blocked due to ROB full
system.cpu0.rename.RenameLookups           1372736412                       # Number of register rename lookups that rename has made
system.cpu0.rename.RenamedInsts            1121772766                       # Number of instructions processed by rename
system.cpu0.rename.RenamedOperands          719951094                       # Number of destination operands rename has renamed
system.cpu0.rename.RunCycles                761462946                       # Number of cycles rename is running
system.cpu0.rename.SQFullEvents              18437800                       # Number of times rename has blocked due to SQ full
system.cpu0.rename.SquashCycles               9421217                       # Number of cycles rename is squashing
system.cpu0.rename.UnblockCycles             39034185                       # Number of cycles rename is unblocking
system.cpu0.rename.UndoneMaps                49295943                       # Number of HB maps that are undone due to squashing
system.cpu0.rename.fp_rename_lookups               44                       # Number of floating rename lookups
system.cpu0.rename.int_rename_lookups      1372736368                       # Number of integer rename lookups
system.cpu0.rename.serializeStallCycles        130688                       # count of cycles rename stalled for serializing inst
system.cpu0.rename.serializingInsts              4649                       # count of serializing insts renamed
system.cpu0.rename.skidInsts                 24370148                       # count of insts added to the skid buffer
system.cpu0.rename.tempSerializingInsts          4634                       # count of temporary serializing insts renamed
system.cpu0.rob.rob_reads                  2894767826                       # The number of ROB reads
system.cpu0.rob.rob_writes                 2227891340                       # The number of ROB writes
system.cpu0.timesIdled                       22391077                       # Number of times that the entire CPU went into an idle state and unscheduled itself
system.cpu0.workload.numSyscalls                 1467                       # Number of system calls
system.cpu1.branchPred.BTBCorrect                   0                       # Number of correct BTB predictions (this stat may not work properly.
system.cpu1.branchPred.BTBHitPct            94.992067                       # BTB Hit Percentage
system.cpu1.branchPred.BTBHits                9743000                       # Number of BTB hits
system.cpu1.branchPred.BTBLookups            10256646                       # Number of BTB lookups
system.cpu1.branchPred.RASInCorrect                 0                       # Number of incorrect RAS predictions.
system.cpu1.branchPred.condIncorrect          1959149                       # Number of conditional branches incorrect
system.cpu1.branchPred.condPredicted         18946692                       # Number of conditional branches predicted
system.cpu1.branchPred.indirectHits            333352                       # Number of indirect target hits.
system.cpu1.branchPred.indirectLookups         483933                       # Number of indirect predictor lookups.
system.cpu1.branchPred.indirectMisses          150581                       # Number of indirect misses.
system.cpu1.branchPred.lookups               20660612                       # Number of BP lookups
system.cpu1.branchPred.usedRAS                      0                       # Number of times the RAS was used to get a target.
system.cpu1.branchPredindirectMispredicted         4810                       # Number of mispredicted indirect branches.
system.cpu1.commit.amos                       1811198                       # Number of atomic instructions committed
system.cpu1.commit.branchMispredicts          1148631                       # The number of times a branch was mispredicted
system.cpu1.commit.branches                  12203698                       # Number of branches committed
system.cpu1.commit.bw_lim_events              1229183                       # number cycles where commit BW limit reached
system.cpu1.commit.commitNonSpecStalls        5434257                       # The number of times commit has been forced to stall to communicate backwards
system.cpu1.commit.commitSquashedInsts       21724031                       # The number of squashed insts skipped by commit
system.cpu1.commit.committedInsts            55083400                       # Number of instructions committed
system.cpu1.commit.committedOps              56894773                       # Number of ops (including micro ops) committed
system.cpu1.commit.committed_per_cycle::samples    337533733                       # Number of insts commited each cycle
system.cpu1.commit.committed_per_cycle::mean     0.168560                       # Number of insts commited each cycle
system.cpu1.commit.committed_per_cycle::stdev     0.807738                       # Number of insts commited each cycle
system.cpu1.commit.committed_per_cycle::underflows            0      0.00%      0.00% # Number of insts commited each cycle
system.cpu1.commit.committed_per_cycle::0    313832572     92.98%     92.98% # Number of insts commited each cycle
system.cpu1.commit.committed_per_cycle::1     11803343      3.50%     96.48% # Number of insts commited each cycle
system.cpu1.commit.committed_per_cycle::2      3941254      1.17%     97.64% # Number of insts commited each cycle
system.cpu1.commit.committed_per_cycle::3      3682122      1.09%     98.73% # Number of insts commited each cycle
system.cpu1.commit.committed_per_cycle::4       909481      0.27%     99.00% # Number of insts commited each cycle
system.cpu1.commit.committed_per_cycle::5       300708      0.09%     99.09% # Number of insts commited each cycle
system.cpu1.commit.committed_per_cycle::6      1657862      0.49%     99.58% # Number of insts commited each cycle
system.cpu1.commit.committed_per_cycle::7       177208      0.05%     99.64% # Number of insts commited each cycle
system.cpu1.commit.committed_per_cycle::8      1229183      0.36%    100.00% # Number of insts commited each cycle
system.cpu1.commit.committed_per_cycle::overflows            0      0.00%    100.00% # Number of insts commited each cycle
system.cpu1.commit.committed_per_cycle::min_value            0                       # Number of insts commited each cycle
system.cpu1.commit.committed_per_cycle::max_value            8                       # Number of insts commited each cycle
system.cpu1.commit.committed_per_cycle::total    337533733                       # Number of insts commited each cycle
system.cpu1.commit.fp_insts                        12                       # Number of committed floating point instructions.
system.cpu1.commit.function_calls              502668                       # Number of function calls committed.
system.cpu1.commit.int_insts                 52980502                       # Number of committed integer instructions.
system.cpu1.commit.loads                     16126936                       # Number of loads committed
system.cpu1.commit.membars                    3622520                       # Number of memory barriers committed
system.cpu1.commit.op_class_0::No_OpClass      3622520      6.37%      6.37% # Class of committed instruction
system.cpu1.commit.op_class_0::IntAlu        32015728     56.27%     62.64% # Class of committed instruction
system.cpu1.commit.op_class_0::IntMult             43      0.00%     62.64% # Class of committed instruction
system.cpu1.commit.op_class_0::IntDiv              86      0.00%     62.64% # Class of committed instruction
system.cpu1.commit.op_class_0::FloatAdd             0      0.00%     62.64% # Class of committed instruction
system.cpu1.commit.op_class_0::FloatCmp             0      0.00%     62.64% # Class of committed instruction
system.cpu1.commit.op_class_0::FloatCvt             0      0.00%     62.64% # Class of committed instruction
system.cpu1.commit.op_class_0::FloatMult            0      0.00%     62.64% # Class of committed instruction
system.cpu1.commit.op_class_0::FloatMultAcc            0      0.00%     62.64% # Class of committed instruction
system.cpu1.commit.op_class_0::FloatDiv             0      0.00%     62.64% # Class of committed instruction
system.cpu1.commit.op_class_0::FloatMisc            0      0.00%     62.64% # Class of committed instruction
system.cpu1.commit.op_class_0::FloatSqrt            0      0.00%     62.64% # Class of committed instruction
system.cpu1.commit.op_class_0::SimdAdd              0      0.00%     62.64% # Class of committed instruction
system.cpu1.commit.op_class_0::SimdAddAcc            0      0.00%     62.64% # Class of committed instruction
system.cpu1.commit.op_class_0::SimdAlu              0      0.00%     62.64% # Class of committed instruction
system.cpu1.commit.op_class_0::SimdCmp              0      0.00%     62.64% # Class of committed instruction
system.cpu1.commit.op_class_0::SimdCvt              0      0.00%     62.64% # Class of committed instruction
system.cpu1.commit.op_class_0::SimdMisc             0      0.00%     62.64% # Class of committed instruction
system.cpu1.commit.op_class_0::SimdMult             0      0.00%     62.64% # Class of committed instruction
system.cpu1.commit.op_class_0::SimdMultAcc            0      0.00%     62.64% # Class of committed instruction
system.cpu1.commit.op_class_0::SimdShift            0      0.00%     62.64% # Class of committed instruction
system.cpu1.commit.op_class_0::SimdShiftAcc            0      0.00%     62.64% # Class of committed instruction
system.cpu1.commit.op_class_0::SimdDiv              0      0.00%     62.64% # Class of committed instruction
system.cpu1.commit.op_class_0::SimdSqrt             0      0.00%     62.64% # Class of committed instruction
system.cpu1.commit.op_class_0::SimdFloatAdd            0      0.00%     62.64% # Class of committed instruction
system.cpu1.commit.op_class_0::SimdFloatAlu            0      0.00%     62.64% # Class of committed instruction
system.cpu1.commit.op_class_0::SimdFloatCmp            0      0.00%     62.64% # Class of committed instruction
system.cpu1.commit.op_class_0::SimdFloatCvt            0      0.00%     62.64% # Class of committed instruction
system.cpu1.commit.op_class_0::SimdFloatDiv            0      0.00%     62.64% # Class of committed instruction
system.cpu1.commit.op_class_0::SimdFloatMisc            0      0.00%     62.64% # Class of committed instruction
system.cpu1.commit.op_class_0::SimdFloatMult            0      0.00%     62.64% # Class of committed instruction
system.cpu1.commit.op_class_0::SimdFloatMultAcc            0      0.00%     62.64% # Class of committed instruction
system.cpu1.commit.op_class_0::SimdFloatSqrt            0      0.00%     62.64% # Class of committed instruction
system.cpu1.commit.op_class_0::SimdReduceAdd            0      0.00%     62.64% # Class of committed instruction
system.cpu1.commit.op_class_0::SimdReduceAlu            0      0.00%     62.64% # Class of committed instruction
system.cpu1.commit.op_class_0::SimdReduceCmp            0      0.00%     62.64% # Class of committed instruction
system.cpu1.commit.op_class_0::SimdFloatReduceAdd            0      0.00%     62.64% # Class of committed instruction
system.cpu1.commit.op_class_0::SimdFloatReduceCmp            0      0.00%     62.64% # Class of committed instruction
system.cpu1.commit.op_class_0::SimdAes              0      0.00%     62.64% # Class of committed instruction
system.cpu1.commit.op_class_0::SimdAesMix            0      0.00%     62.64% # Class of committed instruction
system.cpu1.commit.op_class_0::SimdSha1Hash            0      0.00%     62.64% # Class of committed instruction
system.cpu1.commit.op_class_0::SimdSha1Hash2            0      0.00%     62.64% # Class of committed instruction
system.cpu1.commit.op_class_0::SimdSha256Hash            0      0.00%     62.64% # Class of committed instruction
system.cpu1.commit.op_class_0::SimdSha256Hash2            0      0.00%     62.64% # Class of committed instruction
system.cpu1.commit.op_class_0::SimdShaSigma2            0      0.00%     62.64% # Class of committed instruction
system.cpu1.commit.op_class_0::SimdShaSigma3            0      0.00%     62.64% # Class of committed instruction
system.cpu1.commit.op_class_0::SimdPredAlu            0      0.00%     62.64% # Class of committed instruction
system.cpu1.commit.op_class_0::MemRead       17938134     31.53%     94.17% # Class of committed instruction
system.cpu1.commit.op_class_0::MemWrite       3318250      5.83%    100.00% # Class of committed instruction
system.cpu1.commit.op_class_0::FloatMemRead            0      0.00%    100.00% # Class of committed instruction
system.cpu1.commit.op_class_0::FloatMemWrite           12      0.00%    100.00% # Class of committed instruction
system.cpu1.commit.op_class_0::IprAccess            0      0.00%    100.00% # Class of committed instruction
system.cpu1.commit.op_class_0::InstPrefetch            0      0.00%    100.00% # Class of committed instruction
system.cpu1.commit.op_class_0::total         56894773                       # Class of committed instruction
system.cpu1.commit.refs                      21256396                       # Number of memory references committed
system.cpu1.commit.swp_count                        0                       # Number of s/w prefetches committed
system.cpu1.commit.vec_insts                        0                       # Number of committed Vector instructions.
system.cpu1.committedInsts                   55083400                       # Number of Instructions Simulated
system.cpu1.committedOps                     56894773                       # Number of Ops (including micro ops) Simulated
system.cpu1.cpi                              6.205623                       # CPI: Cycles Per Instruction
system.cpu1.cpi_total                        6.205623                       # CPI: Total CPI of All Threads
system.cpu1.decode.BlockedCycles            291350944                       # Number of cycles decode is blocked
system.cpu1.decode.BranchMispred               816801                       # Number of times decode detected a branch misprediction
system.cpu1.decode.BranchResolved             8585528                       # Number of times decode resolved a branch
system.cpu1.decode.DecodedInsts              85918534                       # Number of instructions handled by decode
system.cpu1.decode.IdleCycles                14287312                       # Number of cycles decode is idle
system.cpu1.decode.RunCycles                 29865576                       # Number of cycles decode is running
system.cpu1.decode.SquashCycles               1149223                       # Number of cycles decode is squashing
system.cpu1.decode.SquashedInsts              1194875                       # Number of squashed instructions handled by decode
system.cpu1.decode.UnblockCycles              4414223                       # Number of cycles decode is unblocking
system.cpu1.dtb.accesses                            0                       # DTB accesses
system.cpu1.dtb.hits                                0                       # DTB hits
system.cpu1.dtb.misses                              0                       # DTB misses
system.cpu1.dtb.read_accesses                       0                       # DTB read accesses
system.cpu1.dtb.read_hits                           0                       # DTB read hits
system.cpu1.dtb.read_misses                         0                       # DTB read misses
system.cpu1.dtb.write_accesses                      0                       # DTB write accesses
system.cpu1.dtb.write_hits                          0                       # DTB write hits
system.cpu1.dtb.write_misses                        0                       # DTB write misses
system.cpu1.fetch.Branches                   20660612                       # Number of branches that fetch encountered
system.cpu1.fetch.CacheLines                 14755852                       # Number of cache lines fetched
system.cpu1.fetch.Cycles                    322712702                       # Number of cycles fetch has run and was not squashing or blocked
system.cpu1.fetch.IcacheSquashes               135509                       # Number of outstanding Icache misses that were squashed
system.cpu1.fetch.Insts                      99596054                       # Number of instructions fetch has processed
system.cpu1.fetch.MiscStallCycles                   1                       # Number of cycles fetch has spent waiting on interrupts, or bad addresses, or out of MSHRs
system.cpu1.fetch.SquashCycles                3919482                       # Number of cycles fetch has spent squashing
system.cpu1.fetch.branchRate                 0.060442                       # Number of branch fetches per cycle
system.cpu1.fetch.icacheStallCycles          16394834                       # Number of cycles fetch is stalled on an Icache miss
system.cpu1.fetch.predictedBranches          10076352                       # Number of branches that fetch has predicted taken
system.cpu1.fetch.rate                       0.291364                       # Number of inst fetches per cycle
system.cpu1.fetch.rateDist::samples         341067278                       # Number of instructions fetched each cycle (Total)
system.cpu1.fetch.rateDist::mean             0.303033                       # Number of instructions fetched each cycle (Total)
system.cpu1.fetch.rateDist::stdev            0.789365                       # Number of instructions fetched each cycle (Total)
system.cpu1.fetch.rateDist::underflows              0      0.00%      0.00% # Number of instructions fetched each cycle (Total)
system.cpu1.fetch.rateDist::0               280712462     82.30%     82.30% # Number of instructions fetched each cycle (Total)
system.cpu1.fetch.rateDist::1                34569601     10.14%     92.44% # Number of instructions fetched each cycle (Total)
system.cpu1.fetch.rateDist::2                15299323      4.49%     96.93% # Number of instructions fetched each cycle (Total)
system.cpu1.fetch.rateDist::3                 6169596      1.81%     98.73% # Number of instructions fetched each cycle (Total)
system.cpu1.fetch.rateDist::4                 2779446      0.81%     99.55% # Number of instructions fetched each cycle (Total)
system.cpu1.fetch.rateDist::5                  668732      0.20%     99.75% # Number of instructions fetched each cycle (Total)
system.cpu1.fetch.rateDist::6                  864436      0.25%    100.00% # Number of instructions fetched each cycle (Total)
system.cpu1.fetch.rateDist::7                      10      0.00%    100.00% # Number of instructions fetched each cycle (Total)
system.cpu1.fetch.rateDist::8                    3672      0.00%    100.00% # Number of instructions fetched each cycle (Total)
system.cpu1.fetch.rateDist::overflows               0      0.00%    100.00% # Number of instructions fetched each cycle (Total)
system.cpu1.fetch.rateDist::min_value               0                       # Number of instructions fetched each cycle (Total)
system.cpu1.fetch.rateDist::max_value               8                       # Number of instructions fetched each cycle (Total)
system.cpu1.fetch.rateDist::total           341067278                       # Number of instructions fetched each cycle (Total)
system.cpu1.fp_regfile_reads                       12                       # number of floating regfile reads
system.cpu1.idleCycles                         759515                       # Total number of cycles that the CPU has spent unscheduled due to idling
system.cpu1.iew.branchMispredicts             1203769                       # Number of branch mispredicts detected at execute
system.cpu1.iew.exec_branches                14770974                       # Number of branches executed
system.cpu1.iew.exec_nop                            0                       # number of nop insts executed
system.cpu1.iew.exec_rate                    0.187685                       # Inst execution rate
system.cpu1.iew.exec_refs                    22503020                       # number of memory reference insts executed
system.cpu1.iew.exec_stores                   5218639                       # Number of stores executed
system.cpu1.iew.exec_swp                            0                       # number of swp insts executed
system.cpu1.iew.iewBlockCycles              246505066                       # Number of cycles IEW is blocking
system.cpu1.iew.iewDispLoadInsts             22332802                       # Number of dispatched load instructions
system.cpu1.iew.iewDispNonSpecInsts           2712186                       # Number of dispatched non-speculative instructions
system.cpu1.iew.iewDispSquashedInsts          2267210                       # Number of squashed instructions skipped by dispatch
system.cpu1.iew.iewDispStoreInsts             7108703                       # Number of dispatched store instructions
system.cpu1.iew.iewDispatchedInsts           78611057                       # Number of instructions dispatched to IQ
system.cpu1.iew.iewExecLoadInsts             17284381                       # Number of load instructions executed
system.cpu1.iew.iewExecSquashedInsts           752589                       # Number of squashed instructions skipped in execute
system.cpu1.iew.iewExecutedInsts             64155922                       # Number of executed instructions
system.cpu1.iew.iewIQFullEvents               1737160                       # Number of times the IQ has become full, causing a stall
system.cpu1.iew.iewIdleCycles                       0                       # Number of cycles IEW is idle
system.cpu1.iew.iewLSQFullEvents              1812151                       # Number of times the LSQ has become full, causing a stall
system.cpu1.iew.iewSquashCycles               1149223                       # Number of cycles IEW is squashing
system.cpu1.iew.iewUnblockCycles              5277821                       # Number of cycles IEW is unblocking
system.cpu1.iew.lsq.thread0.blockedLoads            0                       # Number of blocked loads due to partial load-store forwarding
system.cpu1.iew.lsq.thread0.cacheBlocked        35117                       # Number of times an access to memory failed due to the cache being blocked
system.cpu1.iew.lsq.thread0.forwLoads          319693                       # Number of loads that had data forwarded from stores
system.cpu1.iew.lsq.thread0.ignoredResponses        10623                       # Number of memory responses ignored because the instruction is squashed
system.cpu1.iew.lsq.thread0.invAddrLoads            0                       # Number of loads ignored due to an invalid address
system.cpu1.iew.lsq.thread0.invAddrSwpfs            0                       # Number of software prefetches ignored due to an invalid address
system.cpu1.iew.lsq.thread0.memOrderViolation          644                       # Number of memory ordering violations
system.cpu1.iew.lsq.thread0.rescheduledLoads         3304                       # Number of loads that were rescheduled
system.cpu1.iew.lsq.thread0.squashedLoads      6205866                       # Number of loads squashed
system.cpu1.iew.lsq.thread0.squashedStores      1979243                       # Number of stores squashed
system.cpu1.iew.memOrderViolationEvents           644                       # Number of memory order violations
system.cpu1.iew.predictedNotTakenIncorrect       207145                       # Number of branches that were predicted not taken incorrectly
system.cpu1.iew.predictedTakenIncorrect        996624                       # Number of branches that were predicted taken incorrectly
system.cpu1.iew.wb_consumers                 37263420                       # num instructions consuming a value
system.cpu1.iew.wb_count                     63687532                       # cumulative count of insts written-back
system.cpu1.iew.wb_fanout                    0.834304                       # average fanout of values written-back
system.cpu1.iew.wb_producers                 31089015                       # num instructions producing a value
system.cpu1.iew.wb_rate                      0.186315                       # insts written-back per cycle
system.cpu1.iew.wb_sent                      63703359                       # cumulative count of insts sent to commit
system.cpu1.int_regfile_reads                80127910                       # number of integer regfile reads
system.cpu1.int_regfile_writes               42183801                       # number of integer regfile writes
system.cpu1.ipc                              0.161144                       # IPC: Instructions Per Cycle
system.cpu1.ipc_total                        0.161144                       # IPC: Total IPC of All Threads
system.cpu1.iq.FU_type_0::No_OpClass          3622620      5.58%      5.58% # Type of FU issued
system.cpu1.iq.FU_type_0::IntAlu             38670907     59.58%     65.16% # Type of FU issued
system.cpu1.iq.FU_type_0::IntMult                  45      0.00%     65.16% # Type of FU issued
system.cpu1.iq.FU_type_0::IntDiv                   86      0.00%     65.16% # Type of FU issued
system.cpu1.iq.FU_type_0::FloatAdd                  0      0.00%     65.16% # Type of FU issued
system.cpu1.iq.FU_type_0::FloatCmp                  0      0.00%     65.16% # Type of FU issued
system.cpu1.iq.FU_type_0::FloatCvt                  0      0.00%     65.16% # Type of FU issued
system.cpu1.iq.FU_type_0::FloatMult                 0      0.00%     65.16% # Type of FU issued
system.cpu1.iq.FU_type_0::FloatMultAcc              0      0.00%     65.16% # Type of FU issued
system.cpu1.iq.FU_type_0::FloatDiv                  0      0.00%     65.16% # Type of FU issued
system.cpu1.iq.FU_type_0::FloatMisc                 0      0.00%     65.16% # Type of FU issued
system.cpu1.iq.FU_type_0::FloatSqrt                 0      0.00%     65.16% # Type of FU issued
system.cpu1.iq.FU_type_0::SimdAdd                   0      0.00%     65.16% # Type of FU issued
system.cpu1.iq.FU_type_0::SimdAddAcc                0      0.00%     65.16% # Type of FU issued
system.cpu1.iq.FU_type_0::SimdAlu                   0      0.00%     65.16% # Type of FU issued
system.cpu1.iq.FU_type_0::SimdCmp                   0      0.00%     65.16% # Type of FU issued
system.cpu1.iq.FU_type_0::SimdCvt                   0      0.00%     65.16% # Type of FU issued
system.cpu1.iq.FU_type_0::SimdMisc                  0      0.00%     65.16% # Type of FU issued
system.cpu1.iq.FU_type_0::SimdMult                  0      0.00%     65.16% # Type of FU issued
system.cpu1.iq.FU_type_0::SimdMultAcc               0      0.00%     65.16% # Type of FU issued
system.cpu1.iq.FU_type_0::SimdShift                 0      0.00%     65.16% # Type of FU issued
system.cpu1.iq.FU_type_0::SimdShiftAcc              0      0.00%     65.16% # Type of FU issued
system.cpu1.iq.FU_type_0::SimdDiv                   0      0.00%     65.16% # Type of FU issued
system.cpu1.iq.FU_type_0::SimdSqrt                  0      0.00%     65.16% # Type of FU issued
system.cpu1.iq.FU_type_0::SimdFloatAdd              0      0.00%     65.16% # Type of FU issued
system.cpu1.iq.FU_type_0::SimdFloatAlu              0      0.00%     65.16% # Type of FU issued
system.cpu1.iq.FU_type_0::SimdFloatCmp              0      0.00%     65.16% # Type of FU issued
system.cpu1.iq.FU_type_0::SimdFloatCvt              0      0.00%     65.16% # Type of FU issued
system.cpu1.iq.FU_type_0::SimdFloatDiv              0      0.00%     65.16% # Type of FU issued
system.cpu1.iq.FU_type_0::SimdFloatMisc             0      0.00%     65.16% # Type of FU issued
system.cpu1.iq.FU_type_0::SimdFloatMult             0      0.00%     65.16% # Type of FU issued
system.cpu1.iq.FU_type_0::SimdFloatMultAcc            0      0.00%     65.16% # Type of FU issued
system.cpu1.iq.FU_type_0::SimdFloatSqrt             0      0.00%     65.16% # Type of FU issued
system.cpu1.iq.FU_type_0::SimdReduceAdd             0      0.00%     65.16% # Type of FU issued
system.cpu1.iq.FU_type_0::SimdReduceAlu             0      0.00%     65.16% # Type of FU issued
system.cpu1.iq.FU_type_0::SimdReduceCmp             0      0.00%     65.16% # Type of FU issued
system.cpu1.iq.FU_type_0::SimdFloatReduceAdd            0      0.00%     65.16% # Type of FU issued
system.cpu1.iq.FU_type_0::SimdFloatReduceCmp            0      0.00%     65.16% # Type of FU issued
system.cpu1.iq.FU_type_0::SimdAes                   0      0.00%     65.16% # Type of FU issued
system.cpu1.iq.FU_type_0::SimdAesMix                0      0.00%     65.16% # Type of FU issued
system.cpu1.iq.FU_type_0::SimdSha1Hash              0      0.00%     65.16% # Type of FU issued
system.cpu1.iq.FU_type_0::SimdSha1Hash2             0      0.00%     65.16% # Type of FU issued
system.cpu1.iq.FU_type_0::SimdSha256Hash            0      0.00%     65.16% # Type of FU issued
system.cpu1.iq.FU_type_0::SimdSha256Hash2            0      0.00%     65.16% # Type of FU issued
system.cpu1.iq.FU_type_0::SimdShaSigma2             0      0.00%     65.16% # Type of FU issued
system.cpu1.iq.FU_type_0::SimdShaSigma3             0      0.00%     65.16% # Type of FU issued
system.cpu1.iq.FU_type_0::SimdPredAlu               0      0.00%     65.16% # Type of FU issued
system.cpu1.iq.FU_type_0::MemRead            19192703     29.57%     94.73% # Type of FU issued
system.cpu1.iq.FU_type_0::MemWrite            3422138      5.27%    100.00% # Type of FU issued
system.cpu1.iq.FU_type_0::FloatMemRead              0      0.00%    100.00% # Type of FU issued
system.cpu1.iq.FU_type_0::FloatMemWrite            12      0.00%    100.00% # Type of FU issued
system.cpu1.iq.FU_type_0::IprAccess                 0      0.00%    100.00% # Type of FU issued
system.cpu1.iq.FU_type_0::InstPrefetch              0      0.00%    100.00% # Type of FU issued
system.cpu1.iq.FU_type_0::total              64908511                       # Type of FU issued
system.cpu1.iq.fp_alu_accesses                     16                       # Number of floating point alu accesses
system.cpu1.iq.fp_inst_queue_reads                 28                       # Number of floating instruction queue reads
system.cpu1.iq.fp_inst_queue_wakeup_accesses           12                       # Number of floating instruction queue wakeup accesses
system.cpu1.iq.fp_inst_queue_writes                12                       # Number of floating instruction queue writes
system.cpu1.iq.fu_busy_cnt                    1992859                       # FU busy when requested
system.cpu1.iq.fu_busy_rate                  0.030703                       # FU busy rate (busy events/executed inst)
system.cpu1.iq.fu_full::No_OpClass                  0      0.00%      0.00% # attempts to use FU when none available
system.cpu1.iq.fu_full::IntAlu                 325343     16.33%     16.33% # attempts to use FU when none available
system.cpu1.iq.fu_full::IntMult                     0      0.00%     16.33% # attempts to use FU when none available
system.cpu1.iq.fu_full::IntDiv                      0      0.00%     16.33% # attempts to use FU when none available
system.cpu1.iq.fu_full::FloatAdd                    0      0.00%     16.33% # attempts to use FU when none available
system.cpu1.iq.fu_full::FloatCmp                    0      0.00%     16.33% # attempts to use FU when none available
system.cpu1.iq.fu_full::FloatCvt                    0      0.00%     16.33% # attempts to use FU when none available
system.cpu1.iq.fu_full::FloatMult                   0      0.00%     16.33% # attempts to use FU when none available
system.cpu1.iq.fu_full::FloatMultAcc                0      0.00%     16.33% # attempts to use FU when none available
system.cpu1.iq.fu_full::FloatDiv                    0      0.00%     16.33% # attempts to use FU when none available
system.cpu1.iq.fu_full::FloatMisc                   0      0.00%     16.33% # attempts to use FU when none available
system.cpu1.iq.fu_full::FloatSqrt                   0      0.00%     16.33% # attempts to use FU when none available
system.cpu1.iq.fu_full::SimdAdd                     0      0.00%     16.33% # attempts to use FU when none available
system.cpu1.iq.fu_full::SimdAddAcc                  0      0.00%     16.33% # attempts to use FU when none available
system.cpu1.iq.fu_full::SimdAlu                     0      0.00%     16.33% # attempts to use FU when none available
system.cpu1.iq.fu_full::SimdCmp                     0      0.00%     16.33% # attempts to use FU when none available
system.cpu1.iq.fu_full::SimdCvt                     0      0.00%     16.33% # attempts to use FU when none available
system.cpu1.iq.fu_full::SimdMisc                    0      0.00%     16.33% # attempts to use FU when none available
system.cpu1.iq.fu_full::SimdMult                    0      0.00%     16.33% # attempts to use FU when none available
system.cpu1.iq.fu_full::SimdMultAcc                 0      0.00%     16.33% # attempts to use FU when none available
system.cpu1.iq.fu_full::SimdShift                   0      0.00%     16.33% # attempts to use FU when none available
system.cpu1.iq.fu_full::SimdShiftAcc                0      0.00%     16.33% # attempts to use FU when none available
system.cpu1.iq.fu_full::SimdDiv                     0      0.00%     16.33% # attempts to use FU when none available
system.cpu1.iq.fu_full::SimdSqrt                    0      0.00%     16.33% # attempts to use FU when none available
system.cpu1.iq.fu_full::SimdFloatAdd                0      0.00%     16.33% # attempts to use FU when none available
system.cpu1.iq.fu_full::SimdFloatAlu                0      0.00%     16.33% # attempts to use FU when none available
system.cpu1.iq.fu_full::SimdFloatCmp                0      0.00%     16.33% # attempts to use FU when none available
system.cpu1.iq.fu_full::SimdFloatCvt                0      0.00%     16.33% # attempts to use FU when none available
system.cpu1.iq.fu_full::SimdFloatDiv                0      0.00%     16.33% # attempts to use FU when none available
system.cpu1.iq.fu_full::SimdFloatMisc               0      0.00%     16.33% # attempts to use FU when none available
system.cpu1.iq.fu_full::SimdFloatMult               0      0.00%     16.33% # attempts to use FU when none available
system.cpu1.iq.fu_full::SimdFloatMultAcc            0      0.00%     16.33% # attempts to use FU when none available
system.cpu1.iq.fu_full::SimdFloatSqrt               0      0.00%     16.33% # attempts to use FU when none available
system.cpu1.iq.fu_full::SimdReduceAdd               0      0.00%     16.33% # attempts to use FU when none available
system.cpu1.iq.fu_full::SimdReduceAlu               0      0.00%     16.33% # attempts to use FU when none available
system.cpu1.iq.fu_full::SimdReduceCmp               0      0.00%     16.33% # attempts to use FU when none available
system.cpu1.iq.fu_full::SimdFloatReduceAdd            0      0.00%     16.33% # attempts to use FU when none available
system.cpu1.iq.fu_full::SimdFloatReduceCmp            0      0.00%     16.33% # attempts to use FU when none available
system.cpu1.iq.fu_full::SimdAes                     0      0.00%     16.33% # attempts to use FU when none available
system.cpu1.iq.fu_full::SimdAesMix                  0      0.00%     16.33% # attempts to use FU when none available
system.cpu1.iq.fu_full::SimdSha1Hash                0      0.00%     16.33% # attempts to use FU when none available
system.cpu1.iq.fu_full::SimdSha1Hash2               0      0.00%     16.33% # attempts to use FU when none available
system.cpu1.iq.fu_full::SimdSha256Hash              0      0.00%     16.33% # attempts to use FU when none available
system.cpu1.iq.fu_full::SimdSha256Hash2             0      0.00%     16.33% # attempts to use FU when none available
system.cpu1.iq.fu_full::SimdShaSigma2               0      0.00%     16.33% # attempts to use FU when none available
system.cpu1.iq.fu_full::SimdShaSigma3               0      0.00%     16.33% # attempts to use FU when none available
system.cpu1.iq.fu_full::SimdPredAlu                 0      0.00%     16.33% # attempts to use FU when none available
system.cpu1.iq.fu_full::MemRead               1462784     73.40%     89.73% # attempts to use FU when none available
system.cpu1.iq.fu_full::MemWrite               204728     10.27%    100.00% # attempts to use FU when none available
[...]
system.cpu1.dcache.WriteReq_misses::.cpu1.data       440976                       # number of WriteReq misses
system.cpu1.dcache.WriteReq_misses::total       440976                       # number of WriteReq misses
system.cpu1.dcache.WriteReq_miss_latency::.cpu1.data  29453583803                       # number of WriteReq miss cycles
system.cpu1.dcache.WriteReq_miss_latency::total  29453583803                       # number of WriteReq miss cycles
system.cpu1.dcache.WriteReq_accesses::.cpu1.data      1864870                       # number of WriteReq accesses(hits+misses)
system.cpu1.dcache.WriteReq_accesses::total      1864870                       # number of WriteReq accesses(hits+misses)
system.cpu1.dcache.WriteReq_miss_rate::.cpu1.data     0.236465                       # miss rate for WriteReq accesses
system.cpu1.dcache.WriteReq_miss_rate::total     0.236465                       # miss rate for WriteReq accesses
system.cpu1.dcache.WriteReq_avg_miss_latency::.cpu1.data 66791.806817                       # average WriteReq miss latency
system.cpu1.dcache.WriteReq_avg_miss_latency::total 66791.806817                       # average WriteReq miss latency
system.cpu1.dcache.WriteReq_mshr_hits::.cpu1.data       349830                       # number of WriteReq MSHR hits
system.cpu1.dcache.WriteReq_mshr_hits::total       349830                       # number of WriteReq MSHR hits
system.cpu1.dcache.WriteReq_mshr_misses::.cpu1.data        91146                       # number of WriteReq MSHR misses
system.cpu1.dcache.WriteReq_mshr_misses::total        91146                       # number of WriteReq MSHR misses
system.cpu1.dcache.WriteReq_mshr_miss_latency::.cpu1.data   5006072521                       # number of WriteReq MSHR miss cycles
system.cpu1.dcache.WriteReq_mshr_miss_latency::total   5006072521                       # number of WriteReq MSHR miss cycles
system.cpu1.dcache.WriteReq_mshr_miss_rate::.cpu1.data     0.048875                       # mshr miss rate for WriteReq accesses
system.cpu1.dcache.WriteReq_mshr_miss_rate::total     0.048875                       # mshr miss rate for WriteReq accesses
system.cpu1.dcache.WriteReq_avg_mshr_miss_latency::.cpu1.data 54923.666656                       # average WriteReq mshr miss latency
system.cpu1.dcache.WriteReq_avg_mshr_miss_latency::total 54923.666656                       # average WriteReq mshr miss latency
system.cpu1.dcache.LoadLockedReq_hits::.cpu1.data        67486                       # number of LoadLockedReq hits
system.cpu1.dcache.LoadLockedReq_hits::total        67486                       # number of LoadLockedReq hits
system.cpu1.dcache.LoadLockedReq_misses::.cpu1.data          685                       # number of LoadLockedReq misses
system.cpu1.dcache.LoadLockedReq_misses::total          685                       # number of LoadLockedReq misses
system.cpu1.dcache.LoadLockedReq_miss_latency::.cpu1.data     34687000                       # number of LoadLockedReq miss cycles
system.cpu1.dcache.LoadLockedReq_miss_latency::total     34687000                       # number of LoadLockedReq miss cycles
system.cpu1.dcache.LoadLockedReq_accesses::.cpu1.data        68171                       # number of LoadLockedReq accesses(hits+misses)
system.cpu1.dcache.LoadLockedReq_accesses::total        68171                       # number of LoadLockedReq accesses(hits+misses)
system.cpu1.dcache.LoadLockedReq_miss_rate::.cpu1.data     0.010048                       # miss rate for LoadLockedReq accesses
system.cpu1.dcache.LoadLockedReq_miss_rate::total     0.010048                       # miss rate for LoadLockedReq accesses
system.cpu1.dcache.LoadLockedReq_avg_miss_latency::.cpu1.data 50637.956204                       # average LoadLockedReq miss latency
system.cpu1.dcache.LoadLockedReq_avg_miss_latency::total 50637.956204                       # average LoadLockedReq miss latency
system.cpu1.dcache.LoadLockedReq_mshr_hits::.cpu1.data          181                       # number of LoadLockedReq MSHR hits
system.cpu1.dcache.LoadLockedReq_mshr_hits::total          181                       # number of LoadLockedReq MSHR hits
system.cpu1.dcache.LoadLockedReq_mshr_misses::.cpu1.data          504                       # number of LoadLockedReq MSHR misses
system.cpu1.dcache.LoadLockedReq_mshr_misses::total          504                       # number of LoadLockedReq MSHR misses
system.cpu1.dcache.LoadLockedReq_mshr_miss_latency::.cpu1.data     20911500                       # number of LoadLockedReq MSHR miss cycles
system.cpu1.dcache.LoadLockedReq_mshr_miss_latency::total     20911500                       # number of LoadLockedReq MSHR miss cycles
system.cpu1.dcache.LoadLockedReq_mshr_miss_rate::.cpu1.data     0.007393                       # mshr miss rate for LoadLockedReq accesses
system.cpu1.dcache.LoadLockedReq_mshr_miss_rate::total     0.007393                       # mshr miss rate for LoadLockedReq accesses
system.cpu1.dcache.LoadLockedReq_avg_mshr_miss_latency::.cpu1.data 41491.071429                       # average LoadLockedReq mshr miss latency
system.cpu1.dcache.LoadLockedReq_avg_mshr_miss_latency::total 41491.071429                       # average LoadLockedReq mshr miss latency
system.cpu1.dcache.StoreCondReq_hits::.cpu1.data        63462                       # number of StoreCondReq hits
system.cpu1.dcache.StoreCondReq_hits::total        63462                       # number of StoreCondReq hits
system.cpu1.dcache.StoreCondReq_misses::.cpu1.data         4518                       # number of StoreCondReq misses
system.cpu1.dcache.StoreCondReq_misses::total         4518                       # number of StoreCondReq misses
system.cpu1.dcache.StoreCondReq_miss_latency::.cpu1.data     24847500                       # number of StoreCondReq miss cycles
system.cpu1.dcache.StoreCondReq_miss_latency::total     24847500                       # number of StoreCondReq miss cycles
system.cpu1.dcache.StoreCondReq_accesses::.cpu1.data        67980                       # number of StoreCondReq accesses(hits+misses)
system.cpu1.dcache.StoreCondReq_accesses::total        67980                       # number of StoreCondReq accesses(hits+misses)
system.cpu1.dcache.StoreCondReq_miss_rate::.cpu1.data     0.066461                       # miss rate for StoreCondReq accesses
system.cpu1.dcache.StoreCondReq_miss_rate::total     0.066461                       # miss rate for StoreCondReq accesses
system.cpu1.dcache.StoreCondReq_avg_miss_latency::.cpu1.data  5499.667995                       # average StoreCondReq miss latency
system.cpu1.dcache.StoreCondReq_avg_miss_latency::total  5499.667995                       # average StoreCondReq miss latency
system.cpu1.dcache.StoreCondReq_mshr_misses::.cpu1.data         4461                       # number of StoreCondReq MSHR misses
system.cpu1.dcache.StoreCondReq_mshr_misses::total         4461                       # number of StoreCondReq MSHR misses
system.cpu1.dcache.StoreCondReq_mshr_miss_latency::.cpu1.data     20413500                       # number of StoreCondReq MSHR miss cycles
system.cpu1.dcache.StoreCondReq_mshr_miss_latency::total     20413500                       # number of StoreCondReq MSHR miss cycles
system.cpu1.dcache.StoreCondReq_mshr_miss_rate::.cpu1.data     0.065622                       # mshr miss rate for StoreCondReq accesses
system.cpu1.dcache.StoreCondReq_mshr_miss_rate::total     0.065622                       # mshr miss rate for StoreCondReq accesses
system.cpu1.dcache.StoreCondReq_avg_mshr_miss_latency::.cpu1.data  4575.991930                       # average StoreCondReq mshr miss latency
system.cpu1.dcache.StoreCondReq_avg_mshr_miss_latency::total  4575.991930                       # average StoreCondReq mshr miss latency
system.cpu1.dcache.StoreCondFailReq_miss_latency::.cpu1.data       698500                       # number of StoreCondFailReq miss cycles
system.cpu1.dcache.StoreCondFailReq_miss_latency::total       698500                       # number of StoreCondFailReq miss cycles
system.cpu1.dcache.StoreCondFailReq_avg_miss_latency::.cpu1.data          inf                       # average StoreCondFailReq miss latency
system.cpu1.dcache.StoreCondFailReq_avg_miss_latency::total          inf                       # average StoreCondFailReq miss latency
system.cpu1.dcache.StoreCondFailReq_mshr_miss_latency::.cpu1.data       671500                       # number of StoreCondFailReq MSHR miss cycles
system.cpu1.dcache.StoreCondFailReq_mshr_miss_latency::total       671500                       # number of StoreCondFailReq MSHR miss cycles
system.cpu1.dcache.StoreCondFailReq_avg_mshr_miss_latency::.cpu1.data          inf                       # average StoreCondFailReq mshr miss latency
system.cpu1.dcache.StoreCondFailReq_avg_mshr_miss_latency::total          inf                       # average StoreCondFailReq mshr miss latency
system.cpu1.dcache.SwapReq_hits::.cpu1.data         1487                       # number of SwapReq hits
system.cpu1.dcache.SwapReq_hits::total           1487                       # number of SwapReq hits
system.cpu1.dcache.SwapReq_misses::.cpu1.data         2858                       # number of SwapReq misses
system.cpu1.dcache.SwapReq_misses::total         2858                       # number of SwapReq misses
system.cpu1.dcache.SwapReq_miss_latency::.cpu1.data    108416000                       # number of SwapReq miss cycles
system.cpu1.dcache.SwapReq_miss_latency::total    108416000                       # number of SwapReq miss cycles
system.cpu1.dcache.SwapReq_accesses::.cpu1.data         4345                       # number of SwapReq accesses(hits+misses)
system.cpu1.dcache.SwapReq_accesses::total         4345                       # number of SwapReq accesses(hits+misses)
system.cpu1.dcache.SwapReq_miss_rate::.cpu1.data     0.657768                       # miss rate for SwapReq accesses
system.cpu1.dcache.SwapReq_miss_rate::total     0.657768                       # miss rate for SwapReq accesses
system.cpu1.dcache.SwapReq_avg_miss_latency::.cpu1.data 37934.219734                       # average SwapReq miss latency
system.cpu1.dcache.SwapReq_avg_miss_latency::total 37934.219734                       # average SwapReq miss latency
system.cpu1.dcache.SwapReq_mshr_hits::.cpu1.data            1                       # number of SwapReq MSHR hits
system.cpu1.dcache.SwapReq_mshr_hits::total            1                       # number of SwapReq MSHR hits
system.cpu1.dcache.SwapReq_mshr_misses::.cpu1.data         2857                       # number of SwapReq MSHR misses
system.cpu1.dcache.SwapReq_mshr_misses::total         2857                       # number of SwapReq MSHR misses
system.cpu1.dcache.SwapReq_mshr_miss_latency::.cpu1.data    105553500                       # number of SwapReq MSHR miss cycles
system.cpu1.dcache.SwapReq_mshr_miss_latency::total    105553500                       # number of SwapReq MSHR miss cycles
system.cpu1.dcache.SwapReq_mshr_miss_rate::.cpu1.data     0.657537                       # mshr miss rate for SwapReq accesses
system.cpu1.dcache.SwapReq_mshr_miss_rate::total     0.657537                       # mshr miss rate for SwapReq accesses
system.cpu1.dcache.SwapReq_avg_mshr_miss_latency::.cpu1.data 36945.572279                       # average SwapReq mshr miss latency
system.cpu1.dcache.SwapReq_avg_mshr_miss_latency::total 36945.572279                       # average SwapReq mshr miss latency
system.cpu1.dcache.tags.pwrStateResidencyTicks::UNDEFINED  75318072500                       # Cumulative time (in ticks) in various power states
system.cpu1.dcache.tags.tagsinuse           31.064379                       # Cycle average of tags in use
system.cpu1.dcache.tags.total_refs           17039110                       # Total number of references to valid blocks.
system.cpu1.dcache.tags.sampled_refs          1485645                       # Sample count of references to valid blocks.
system.cpu1.dcache.tags.avg_refs            11.469167                       # Average number of references to valid blocks.
system.cpu1.dcache.tags.warmup_cycle                0                       # Cycle when the warmup percentage was hit.
system.cpu1.dcache.tags.occ_blocks::.cpu1.data    31.064379                       # Average occupied blocks per requestor
system.cpu1.dcache.tags.occ_percent::.cpu1.data     0.970762                       # Average percentage of cache occupancy
system.cpu1.dcache.tags.occ_percent::total     0.970762                       # Average percentage of cache occupancy
system.cpu1.dcache.tags.occ_task_id_blocks::1024           28                       # Occupied blocks per task id
system.cpu1.dcache.tags.age_task_id_blocks_1024::1           28                       # Occupied blocks per task id
system.cpu1.dcache.tags.occ_task_id_percent::1024     0.875000                       # Percentage of cache occupancy per task id
system.cpu1.dcache.tags.tag_accesses         45818594                       # Number of tag accesses
system.cpu1.dcache.tags.data_accesses        45818594                       # Number of data accesses
system.cpu_clk_domain.clock                       500                       # Clock period in ticks
system.tol2bus.pwrStateResidencyTicks::UNDEFINED  75318072500                       # Cumulative time (in ticks) in various power states
system.tol2bus.trans_dist::ReadResp           3061764                       # Transaction distribution
system.tol2bus.trans_dist::WritebackDirty       816064                       # Transaction distribution
system.tol2bus.trans_dist::WritebackClean      2681449                       # Transaction distribution
system.tol2bus.trans_dist::CleanEvict         4865136                       # Transaction distribution
system.tol2bus.trans_dist::HardPFReq          2011290                       # Transaction distribution
system.tol2bus.trans_dist::HardPFResp               2                       # Transaction distribution
system.tol2bus.trans_dist::UpgradeReq           51188                       # Transaction distribution
system.tol2bus.trans_dist::SCUpgradeReq          9054                       # Transaction distribution
system.tol2bus.trans_dist::UpgradeResp          60242                       # Transaction distribution
system.tol2bus.trans_dist::SCUpgradeFailReq           59                       # Transaction distribution
system.tol2bus.trans_dist::UpgradeFailResp           59                       # Transaction distribution
system.tol2bus.trans_dist::ReadExReq           168783                       # Transaction distribution
system.tol2bus.trans_dist::ReadExResp          168783                       # Transaction distribution
system.tol2bus.trans_dist::ReadCleanReq        118449                       # Transaction distribution
system.tol2bus.trans_dist::ReadSharedReq      2943314                       # Transaction distribution
system.tol2bus.trans_dist::InvalidateReq         1276                       # Transaction distribution
system.tol2bus.trans_dist::InvalidateResp         1276                       # Transaction distribution
system.tol2bus.pkt_count_system.cpu0.icache.mem_side::system.l2.cpu_side       296540                       # Packet count per connected master and slave (bytes)
system.tol2bus.pkt_count_system.cpu0.dcache.mem_side::system.l2.cpu_side      4837713                       # Packet count per connected master and slave (bytes)
system.tol2bus.pkt_count_system.cpu1.icache.mem_side::system.l2.cpu_side        58785                       # Packet count per connected master and slave (bytes)
system.tol2bus.pkt_count_system.cpu1.dcache.mem_side::system.l2.cpu_side      4410945                       # Packet count per connected master and slave (bytes)
system.tol2bus.pkt_count::total               9603983                       # Packet count per connected master and slave (bytes)
system.tol2bus.pkt_size_system.cpu0.icache.mem_side::system.l2.cpu_side     12651904                       # Cumulative packet size per connected master and slave (bytes)
system.tol2bus.pkt_size_system.cpu0.dcache.mem_side::system.l2.cpu_side    203066176                       # Cumulative packet size per connected master and slave (bytes)
system.tol2bus.pkt_size_system.cpu1.icache.mem_side::system.l2.cpu_side      2508160                       # Cumulative packet size per connected master and slave (bytes)
system.tol2bus.pkt_size_system.cpu1.dcache.mem_side::system.l2.cpu_side    184922816                       # Cumulative packet size per connected master and slave (bytes)
system.tol2bus.pkt_size::total              403149056                       # Cumulative packet size per connected master and slave (bytes)
system.tol2bus.snoops                         7354207                       # Total snoops (count)
system.tol2bus.snoopTraffic                  27450816                       # Total snoop traffic (bytes)
system.tol2bus.snoop_fanout::samples         10515769                       # Request fanout histogram
system.tol2bus.snoop_fanout::mean            0.269216                       # Request fanout histogram
system.tol2bus.snoop_fanout::stdev           0.466314                       # Request fanout histogram
system.tol2bus.snoop_fanout::underflows             0      0.00%      0.00% # Request fanout histogram
system.tol2bus.snoop_fanout::0                7793161     74.11%     74.11% # Request fanout histogram
system.tol2bus.snoop_fanout::1                2614698     24.86%     98.97% # Request fanout histogram
system.tol2bus.snoop_fanout::2                 107419      1.02%    100.00% # Request fanout histogram
system.tol2bus.snoop_fanout::3                    491      0.00%    100.00% # Request fanout histogram
system.tol2bus.snoop_fanout::4                      0      0.00%    100.00% # Request fanout histogram
system.tol2bus.snoop_fanout::5                      0      0.00%    100.00% # Request fanout histogram
system.tol2bus.snoop_fanout::6                      0      0.00%    100.00% # Request fanout histogram
system.tol2bus.snoop_fanout::7                      0      0.00%    100.00% # Request fanout histogram
system.tol2bus.snoop_fanout::8                      0      0.00%    100.00% # Request fanout histogram
system.tol2bus.snoop_fanout::overflows              0      0.00%    100.00% # Request fanout histogram
system.tol2bus.snoop_fanout::min_value              0                       # Request fanout histogram
system.tol2bus.snoop_fanout::max_value              3                       # Request fanout histogram
system.tol2bus.snoop_fanout::total           10515769                       # Request fanout histogram
system.tol2bus.reqLayer0.occupancy         6376493177                       # Layer occupancy (ticks)
system.tol2bus.reqLayer0.utilization              8.5                       # Layer utilization (%)
system.tol2bus.respLayer1.occupancy        2460489020                       # Layer occupancy (ticks)
system.tol2bus.respLayer1.utilization             3.3                       # Layer utilization (%)
system.tol2bus.respLayer0.occupancy         148387789                       # Layer occupancy (ticks)
system.tol2bus.respLayer0.utilization             0.2                       # Layer utilization (%)
system.tol2bus.respLayer3.occupancy        2248662816                       # Layer occupancy (ticks)
system.tol2bus.respLayer3.utilization             3.0                       # Layer utilization (%)
system.tol2bus.respLayer2.occupancy          29547689                       # Layer occupancy (ticks)
system.tol2bus.respLayer2.utilization             0.0                       # Layer utilization (%)
system.tol2bus.snoopLayer0.occupancy             3011                       # Layer occupancy (ticks)
system.tol2bus.snoopLayer0.utilization            0.0                       # Layer utilization (%)

---------- End Simulation Statistics   ----------
