
---------- Begin Simulation Statistics ----------
final_tick                               882402009000                       # Number of ticks from beginning of simulation (restored from checkpoints and never reset)
host_inst_rate                                  97713                       # Simulator instruction rate (inst/s)
host_mem_usage                                 739512                       # Number of bytes of host memory used
host_op_rate                                    98028                       # Simulator op (including micro ops) rate (op/s)
host_seconds                                 10423.38                       # Real time elapsed on the host
host_tick_rate                               84656025                       # Simulator tick rate (ticks/s)
sim_freq                                 1000000000000                       # Frequency of simulated ticks
sim_insts                                  1018503923                       # Number of instructions simulated
sim_ops                                    1021785545                       # Number of ops (including micro ops) simulated
sim_seconds                                  0.882402                       # Number of seconds simulated
sim_ticks                                882402009000                       # Number of ticks simulated
system.cpu0.branchPred.BTBCorrect                   0                       # Number of correct BTB predictions (this stat may not work properly.
system.cpu0.branchPred.BTBHitPct            86.883360                       # BTB Hit Percentage
system.cpu0.branchPred.BTBHits              116823442                       # Number of BTB hits
system.cpu0.branchPred.BTBLookups           134460088                       # Number of BTB lookups
system.cpu0.branchPred.RASInCorrect                 0                       # Number of incorrect RAS predictions.
system.cpu0.branchPred.condIncorrect         10780639                       # Number of conditional branches incorrect
system.cpu0.branchPred.condPredicted        182140002                       # Number of conditional branches predicted
system.cpu0.branchPred.indirectHits          15461626                       # Number of indirect target hits.
system.cpu0.branchPred.indirectLookups       15575006                       # Number of indirect predictor lookups.
system.cpu0.branchPred.indirectMisses          113380                       # Number of indirect misses.
system.cpu0.branchPred.lookups              231820076                       # Number of BP lookups
system.cpu0.branchPred.usedRAS                      0                       # Number of times the RAS was used to get a target.
system.cpu0.branchPredindirectMispredicted      1662856                       # Number of mispredicted indirect branches.
system.cpu0.commit.amos                        819875                       # Number of atomic instructions committed
system.cpu0.commit.branchMispredicts          6841408                       # The number of times a branch was mispredicted
system.cpu0.commit.branches                 221014281                       # Number of branches committed
system.cpu0.commit.bw_lim_events             29615271                       # number cycles where commit BW limit reached
system.cpu0.commit.commitNonSpecStalls        2466170                       # The number of times commit has been forced to stall to communicate backwards
system.cpu0.commit.commitSquashedInsts       41310608                       # The number of squashed insts skipped by commit
system.cpu0.commit.committedInsts           892402897                       # Number of instructions committed
system.cpu0.commit.committedOps             893224989                       # Number of ops (including micro ops) committed
system.cpu0.commit.committed_per_cycle::samples   1590028318                       # Number of insts commited each cycle
system.cpu0.commit.committed_per_cycle::mean     0.561767                       # Number of insts commited each cycle
system.cpu0.commit.committed_per_cycle::stdev     1.348960                       # Number of insts commited each cycle
system.cpu0.commit.committed_per_cycle::underflows            0      0.00%      0.00% # Number of insts commited each cycle
system.cpu0.commit.committed_per_cycle::0   1154748692     72.62%     72.62% # Number of insts commited each cycle
system.cpu0.commit.committed_per_cycle::1    270091040     16.99%     89.61% # Number of insts commited each cycle
system.cpu0.commit.committed_per_cycle::2     56135241      3.53%     93.14% # Number of insts commited each cycle
system.cpu0.commit.committed_per_cycle::3     57257617      3.60%     96.74% # Number of insts commited each cycle
system.cpu0.commit.committed_per_cycle::4     13738284      0.86%     97.61% # Number of insts commited each cycle
system.cpu0.commit.committed_per_cycle::5      5389889      0.34%     97.95% # Number of insts commited each cycle
system.cpu0.commit.committed_per_cycle::6      1100121      0.07%     98.01% # Number of insts commited each cycle
system.cpu0.commit.committed_per_cycle::7      1952163      0.12%     98.14% # Number of insts commited each cycle
system.cpu0.commit.committed_per_cycle::8     29615271      1.86%    100.00% # Number of insts commited each cycle
system.cpu0.commit.committed_per_cycle::overflows            0      0.00%    100.00% # Number of insts commited each cycle
system.cpu0.commit.committed_per_cycle::min_value            0                       # Number of insts commited each cycle
system.cpu0.commit.committed_per_cycle::max_value            8                       # Number of insts commited each cycle
system.cpu0.commit.committed_per_cycle::total   1590028318                       # Number of insts commited each cycle
system.cpu0.commit.fp_insts                        46                       # Number of committed floating point instructions.
system.cpu0.commit.function_calls            18340989                       # Number of function calls committed.
system.cpu0.commit.int_insts                863513543                       # Number of committed integer instructions.
system.cpu0.commit.loads                    280412415                       # Number of loads committed
system.cpu0.commit.membars                    1641852                       # Number of memory barriers committed
system.cpu0.commit.op_class_0::No_OpClass      1641858      0.18%      0.18% # Class of committed instruction
system.cpu0.commit.op_class_0::IntAlu       491116312     54.98%     55.17% # Class of committed instruction
system.cpu0.commit.op_class_0::IntMult        7835016      0.88%     56.04% # Class of committed instruction
system.cpu0.commit.op_class_0::IntDiv         1638713      0.18%     56.23% # Class of committed instruction
system.cpu0.commit.op_class_0::FloatAdd             0      0.00%     56.23% # Class of committed instruction
system.cpu0.commit.op_class_0::FloatCmp             4      0.00%     56.23% # Class of committed instruction
system.cpu0.commit.op_class_0::FloatCvt            12      0.00%     56.23% # Class of committed instruction
system.cpu0.commit.op_class_0::FloatMult            0      0.00%     56.23% # Class of committed instruction
system.cpu0.commit.op_class_0::FloatMultAcc            0      0.00%     56.23% # Class of committed instruction
system.cpu0.commit.op_class_0::FloatDiv             2      0.00%     56.23% # Class of committed instruction
system.cpu0.commit.op_class_0::FloatMisc            4      0.00%     56.23% # Class of committed instruction
system.cpu0.commit.op_class_0::FloatSqrt            0      0.00%     56.23% # Class of committed instruction
system.cpu0.commit.op_class_0::SimdAdd              0      0.00%     56.23% # Class of committed instruction
system.cpu0.commit.op_class_0::SimdAddAcc            0      0.00%     56.23% # Class of committed instruction
system.cpu0.commit.op_class_0::SimdAlu              0      0.00%     56.23% # Class of committed instruction
system.cpu0.commit.op_class_0::SimdCmp              0      0.00%     56.23% # Class of committed instruction
system.cpu0.commit.op_class_0::SimdCvt              0      0.00%     56.23% # Class of committed instruction
system.cpu0.commit.op_class_0::SimdMisc             0      0.00%     56.23% # Class of committed instruction
system.cpu0.commit.op_class_0::SimdMult             0      0.00%     56.23% # Class of committed instruction
system.cpu0.commit.op_class_0::SimdMultAcc            0      0.00%     56.23% # Class of committed instruction
system.cpu0.commit.op_class_0::SimdShift            0      0.00%     56.23% # Class of committed instruction
system.cpu0.commit.op_class_0::SimdShiftAcc            0      0.00%     56.23% # Class of committed instruction
system.cpu0.commit.op_class_0::SimdDiv              0      0.00%     56.23% # Class of committed instruction
system.cpu0.commit.op_class_0::SimdSqrt             0      0.00%     56.23% # Class of committed instruction
system.cpu0.commit.op_class_0::SimdFloatAdd            0      0.00%     56.23% # Class of committed instruction
system.cpu0.commit.op_class_0::SimdFloatAlu            0      0.00%     56.23% # Class of committed instruction
system.cpu0.commit.op_class_0::SimdFloatCmp            0      0.00%     56.23% # Class of committed instruction
system.cpu0.commit.op_class_0::SimdFloatCvt            0      0.00%     56.23% # Class of committed instruction
system.cpu0.commit.op_class_0::SimdFloatDiv            0      0.00%     56.23% # Class of committed instruction
system.cpu0.commit.op_class_0::SimdFloatMisc            0      0.00%     56.23% # Class of committed instruction
system.cpu0.commit.op_class_0::SimdFloatMult            0      0.00%     56.23% # Class of committed instruction
system.cpu0.commit.op_class_0::SimdFloatMultAcc            0      0.00%     56.23% # Class of committed instruction
system.cpu0.commit.op_class_0::SimdFloatSqrt            0      0.00%     56.23% # Class of committed instruction
system.cpu0.commit.op_class_0::SimdReduceAdd            0      0.00%     56.23% # Class of committed instruction
system.cpu0.commit.op_class_0::SimdReduceAlu            0      0.00%     56.23% # Class of committed instruction
system.cpu0.commit.op_class_0::SimdReduceCmp            0      0.00%     56.23% # Class of committed instruction
system.cpu0.commit.op_class_0::SimdFloatReduceAdd            0      0.00%     56.23% # Class of committed instruction
system.cpu0.commit.op_class_0::SimdFloatReduceCmp            0      0.00%     56.23% # Class of committed instruction
system.cpu0.commit.op_class_0::SimdAes              0      0.00%     56.23% # Class of committed instruction
system.cpu0.commit.op_class_0::SimdAesMix            0      0.00%     56.23% # Class of committed instruction
system.cpu0.commit.op_class_0::SimdSha1Hash            0      0.00%     56.23% # Class of committed instruction
system.cpu0.commit.op_class_0::SimdSha1Hash2            0      0.00%     56.23% # Class of committed instruction
system.cpu0.commit.op_class_0::SimdSha256Hash            0      0.00%     56.23% # Class of committed instruction
system.cpu0.commit.op_class_0::SimdSha256Hash2            0      0.00%     56.23% # Class of committed instruction
system.cpu0.commit.op_class_0::SimdShaSigma2            0      0.00%     56.23% # Class of committed instruction
system.cpu0.commit.op_class_0::SimdShaSigma3            0      0.00%     56.23% # Class of committed instruction
system.cpu0.commit.op_class_0::SimdPredAlu            0      0.00%     56.23% # Class of committed instruction
system.cpu0.commit.op_class_0::MemRead      281232282     31.49%     87.71% # Class of committed instruction
system.cpu0.commit.op_class_0::MemWrite     109760762     12.29%    100.00% # Class of committed instruction
system.cpu0.commit.op_class_0::FloatMemRead            8      0.00%    100.00% # Class of committed instruction
system.cpu0.commit.op_class_0::FloatMemWrite           16      0.00%    100.00% # Class of committed instruction
system.cpu0.commit.op_class_0::IprAccess            0      0.00%    100.00% # Class of committed instruction
system.cpu0.commit.op_class_0::InstPrefetch            0      0.00%    100.00% # Class of committed instruction
system.cpu0.commit.op_class_0::total        893224989                       # Class of committed instruction
system.cpu0.commit.refs                     390993068                       # Number of memory references committed
system.cpu0.commit.swp_count                        0                       # Number of s/w prefetches committed
system.cpu0.commit.vec_insts                        0                       # Number of committed Vector instructions.
system.cpu0.committedInsts                  892402897                       # Number of Instructions Simulated
system.cpu0.committedOps                    893224989                       # Number of Ops (including micro ops) Simulated
system.cpu0.cpi                              1.948299                       # CPI: Cycles Per Instruction
system.cpu0.cpi_total                        1.948299                       # CPI: Total CPI of All Threads
system.cpu0.decode.BlockedCycles            205481401                       # Number of cycles decode is blocked
system.cpu0.decode.BranchMispred              4160118                       # Number of times decode detected a branch misprediction
system.cpu0.decode.BranchResolved           116175692                       # Number of times decode resolved a branch
system.cpu0.decode.DecodedInsts             949791830                       # Number of instructions handled by decode
system.cpu0.decode.IdleCycles               708467301                       # Number of cycles decode is idle
system.cpu0.decode.RunCycles                677002842                       # Number of cycles decode is running
system.cpu0.decode.SquashCycles               6850357                       # Number of cycles decode is squashing
system.cpu0.decode.SquashedInsts              5626377                       # Number of squashed instructions handled by decode
system.cpu0.decode.UnblockCycles              2445846                       # Number of cycles decode is unblocking
system.cpu0.dtb.accesses                            0                       # DTB accesses
system.cpu0.dtb.hits                                0                       # DTB hits
system.cpu0.dtb.misses                              0                       # DTB misses
system.cpu0.dtb.read_accesses                       0                       # DTB read accesses
system.cpu0.dtb.read_hits                           0                       # DTB read hits
system.cpu0.dtb.read_misses                         0                       # DTB read misses
system.cpu0.dtb.write_accesses                      0                       # DTB write accesses
system.cpu0.dtb.write_hits                          0                       # DTB write hits
system.cpu0.dtb.write_misses                        0                       # DTB write misses
system.cpu0.fetch.Branches                  231820076                       # Number of branches that fetch encountered
system.cpu0.fetch.CacheLines                171398787                       # Number of cache lines fetched
system.cpu0.fetch.Cycles                    888539177                       # Number of cycles fetch has run and was not squashing or blocked
system.cpu0.fetch.IcacheSquashes              3547911                       # Number of outstanding Icache misses that were squashed
system.cpu0.fetch.IcacheWaitRetryStallCycles          139                       # Number of stall cycles due to full MSHR
system.cpu0.fetch.Insts                     962975303                       # Number of instructions fetch has processed
system.cpu0.fetch.MiscStallCycles                  15                       # Number of cycles fetch has spent waiting on interrupts, or bad addresses, or out of MSHRs
system.cpu0.fetch.PendingTrapStallCycles            6                       # Number of stall cycles due to pending traps
system.cpu0.fetch.SquashCycles               21579178                       # Number of cycles fetch has spent squashing
system.cpu0.fetch.branchRate                 0.133332                       # Number of branch fetches per cycle
system.cpu0.fetch.icacheStallCycles         700918821                       # Number of cycles fetch is stalled on an Icache miss
system.cpu0.fetch.predictedBranches         132285068                       # Number of branches that fetch has predicted taken
system.cpu0.fetch.rate                       0.553858                       # Number of inst fetches per cycle
system.cpu0.fetch.rateDist::samples        1600247747                       # Number of instructions fetched each cycle (Total)
system.cpu0.fetch.rateDist::mean             0.602621                       # Number of instructions fetched each cycle (Total)
system.cpu0.fetch.rateDist::stdev            0.876476                       # Number of instructions fetched each cycle (Total)
system.cpu0.fetch.rateDist::underflows              0      0.00%      0.00% # Number of instructions fetched each cycle (Total)
system.cpu0.fetch.rateDist::0               903459953     56.46%     56.46% # Number of instructions fetched each cycle (Total)
system.cpu0.fetch.rateDist::1               524924520     32.80%     89.26% # Number of instructions fetched each cycle (Total)
system.cpu0.fetch.rateDist::2               104513189      6.53%     95.79% # Number of instructions fetched each cycle (Total)
system.cpu0.fetch.rateDist::3                55185055      3.45%     99.24% # Number of instructions fetched each cycle (Total)
system.cpu0.fetch.rateDist::4                 4634427      0.29%     99.53% # Number of instructions fetched each cycle (Total)
system.cpu0.fetch.rateDist::5                 3864562      0.24%     99.77% # Number of instructions fetched each cycle (Total)
system.cpu0.fetch.rateDist::6                  354365      0.02%     99.79% # Number of instructions fetched each cycle (Total)
system.cpu0.fetch.rateDist::7                 1643572      0.10%     99.90% # Number of instructions fetched each cycle (Total)
system.cpu0.fetch.rateDist::8                 1668104      0.10%    100.00% # Number of instructions fetched each cycle (Total)
system.cpu0.fetch.rateDist::overflows               0      0.00%    100.00% # Number of instructions fetched each cycle (Total)
system.cpu0.fetch.rateDist::min_value               0                       # Number of instructions fetched each cycle (Total)
system.cpu0.fetch.rateDist::max_value               8                       # Number of instructions fetched each cycle (Total)
system.cpu0.fetch.rateDist::total          1600247747                       # Number of instructions fetched each cycle (Total)
system.cpu0.fp_regfile_reads                       42                       # number of floating regfile reads
system.cpu0.fp_regfile_writes                      22                       # number of floating regfile writes
system.cpu0.idleCycles                      138419590                       # Total number of cycles that the CPU has spent unscheduled due to idling
system.cpu0.iew.branchMispredicts             6883732                       # Number of branch mispredicts detected at execute
system.cpu0.iew.exec_branches               225293916                       # Number of branches executed
system.cpu0.iew.exec_nop                            0                       # number of nop insts executed
system.cpu0.iew.exec_rate                    0.530920                       # Inst execution rate
system.cpu0.iew.exec_refs                   409099741                       # number of memory reference insts executed
system.cpu0.iew.exec_stores                 112335042                       # Number of stores executed
system.cpu0.iew.exec_swp                            0                       # number of swp insts executed
system.cpu0.iew.iewBlockCycles              171772845                       # Number of cycles IEW is blocking
system.cpu0.iew.iewDispLoadInsts            298988156                       # Number of dispatched load instructions
system.cpu0.iew.iewDispNonSpecInsts           1165255                       # Number of dispatched non-speculative instructions
system.cpu0.iew.iewDispSquashedInsts          2986009                       # Number of squashed instructions skipped by dispatch
system.cpu0.iew.iewDispStoreInsts           114905287                       # Number of dispatched store instructions
system.cpu0.iew.iewDispatchedInsts          934527917                       # Number of instructions dispatched to IQ
system.cpu0.iew.iewExecLoadInsts            296764699                       # Number of load instructions executed
system.cpu0.iew.iewExecSquashedInsts          6157709                       # Number of squashed instructions skipped in execute
system.cpu0.iew.iewExecutedInsts            923093112                       # Number of executed instructions
system.cpu0.iew.iewIQFullEvents                585225                       # Number of times the IQ has become full, causing a stall
system.cpu0.iew.iewIdleCycles                       0                       # Number of cycles IEW is idle
system.cpu0.iew.iewLSQFullEvents              2564098                       # Number of times the LSQ has become full, causing a stall
system.cpu0.iew.iewSquashCycles               6850357                       # Number of cycles IEW is squashing
system.cpu0.iew.iewUnblockCycles              4147171                       # Number of cycles IEW is unblocking
system.cpu0.iew.lsq.thread0.blockedLoads            0                       # Number of blocked loads due to partial load-store forwarding
system.cpu0.iew.lsq.thread0.cacheBlocked        70055                       # Number of times an access to memory failed due to the cache being blocked
system.cpu0.iew.lsq.thread0.forwLoads        16523157                       # Number of loads that had data forwarded from stores
system.cpu0.iew.lsq.thread0.ignoredResponses        14457                       # Number of memory responses ignored because the instruction is squashed
system.cpu0.iew.lsq.thread0.invAddrLoads            0                       # Number of loads ignored due to an invalid address
system.cpu0.iew.lsq.thread0.invAddrSwpfs            0                       # Number of software prefetches ignored due to an invalid address
system.cpu0.iew.lsq.thread0.memOrderViolation         9465                       # Number of memory ordering violations
system.cpu0.iew.lsq.thread0.rescheduledLoads      3374705                       # Number of loads that were rescheduled
system.cpu0.iew.lsq.thread0.squashedLoads     18575741                       # Number of loads squashed
system.cpu0.iew.lsq.thread0.squashedStores      4324634                       # Number of stores squashed
system.cpu0.iew.memOrderViolationEvents          9465                       # Number of memory order violations
system.cpu0.iew.predictedNotTakenIncorrect       729849                       # Number of branches that were predicted not taken incorrectly
system.cpu0.iew.predictedTakenIncorrect       6153883                       # Number of branches that were predicted taken incorrectly
system.cpu0.iew.wb_consumers                372244374                       # num instructions consuming a value
system.cpu0.iew.wb_count                    915459009                       # cumulative count of insts written-back
system.cpu0.iew.wb_fanout                    0.893405                       # average fanout of values written-back
system.cpu0.iew.wb_producers                332564845                       # num instructions producing a value
system.cpu0.iew.wb_rate                      0.526529                       # insts written-back per cycle
system.cpu0.iew.wb_sent                     915509062                       # cumulative count of insts sent to commit
system.cpu0.int_regfile_reads              1124753368                       # number of integer regfile reads
system.cpu0.int_regfile_writes              585472508                       # number of integer regfile writes
system.cpu0.ipc                              0.513268                       # IPC: Instructions Per Cycle
system.cpu0.ipc_total                        0.513268                       # IPC: Total IPC of All Threads
system.cpu0.iq.FU_type_0::No_OpClass          1643344      0.18%      0.18% # Type of FU issued
system.cpu0.iq.FU_type_0::IntAlu            504326342     54.27%     54.45% # Type of FU issued
system.cpu0.iq.FU_type_0::IntMult             7839086      0.84%     55.29% # Type of FU issued
system.cpu0.iq.FU_type_0::IntDiv              1639149      0.18%     55.47% # Type of FU issued
system.cpu0.iq.FU_type_0::FloatAdd                  0      0.00%     55.47% # Type of FU issued
system.cpu0.iq.FU_type_0::FloatCmp                  4      0.00%     55.47% # Type of FU issued
system.cpu0.iq.FU_type_0::FloatCvt                 12      0.00%     55.47% # Type of FU issued
system.cpu0.iq.FU_type_0::FloatMult                 0      0.00%     55.47% # Type of FU issued
system.cpu0.iq.FU_type_0::FloatMultAcc              0      0.00%     55.47% # Type of FU issued
system.cpu0.iq.FU_type_0::FloatDiv                  2      0.00%     55.47% # Type of FU issued
system.cpu0.iq.FU_type_0::FloatMisc                 4      0.00%     55.47% # Type of FU issued
system.cpu0.iq.FU_type_0::FloatSqrt                 0      0.00%     55.47% # Type of FU issued
system.cpu0.iq.FU_type_0::SimdAdd                   0      0.00%     55.47% # Type of FU issued
system.cpu0.iq.FU_type_0::SimdAddAcc                0      0.00%     55.47% # Type of FU issued
system.cpu0.iq.FU_type_0::SimdAlu                   0      0.00%     55.47% # Type of FU issued
system.cpu0.iq.FU_type_0::SimdCmp                   0      0.00%     55.47% # Type of FU issued
system.cpu0.iq.FU_type_0::SimdCvt                   0      0.00%     55.47% # Type of FU issued
system.cpu0.iq.FU_type_0::SimdMisc                  0      0.00%     55.47% # Type of FU issued
system.cpu0.iq.FU_type_0::SimdMult                  0      0.00%     55.47% # Type of FU issued
system.cpu0.iq.FU_type_0::SimdMultAcc               0      0.00%     55.47% # Type of FU issued
system.cpu0.iq.FU_type_0::SimdShift                 0      0.00%     55.47% # Type of FU issued
system.cpu0.iq.FU_type_0::SimdShiftAcc              0      0.00%     55.47% # Type of FU issued
system.cpu0.iq.FU_type_0::SimdDiv                   0      0.00%     55.47% # Type of FU issued
system.cpu0.iq.FU_type_0::SimdSqrt                  0      0.00%     55.47% # Type of FU issued
system.cpu0.iq.FU_type_0::SimdFloatAdd              0      0.00%     55.47% # Type of FU issued
system.cpu0.iq.FU_type_0::SimdFloatAlu              0      0.00%     55.47% # Type of FU issued
system.cpu0.iq.FU_type_0::SimdFloatCmp              0      0.00%     55.47% # Type of FU issued
system.cpu0.iq.FU_type_0::SimdFloatCvt              0      0.00%     55.47% # Type of FU issued
system.cpu0.iq.FU_type_0::SimdFloatDiv              0      0.00%     55.47% # Type of FU issued
system.cpu0.iq.FU_type_0::SimdFloatMisc             0      0.00%     55.47% # Type of FU issued
system.cpu0.iq.FU_type_0::SimdFloatMult             0      0.00%     55.47% # Type of FU issued
system.cpu0.iq.FU_type_0::SimdFloatMultAcc            0      0.00%     55.47% # Type of FU issued
system.cpu0.iq.FU_type_0::SimdFloatSqrt             0      0.00%     55.47% # Type of FU issued
system.cpu0.iq.FU_type_0::SimdReduceAdd             0      0.00%     55.47% # Type of FU issued
system.cpu0.iq.FU_type_0::SimdReduceAlu             0      0.00%     55.47% # Type of FU issued
system.cpu0.iq.FU_type_0::SimdReduceCmp             0      0.00%     55.47% # Type of FU issued
system.cpu0.iq.FU_type_0::SimdFloatReduceAdd            0      0.00%     55.47% # Type of FU issued
system.cpu0.iq.FU_type_0::SimdFloatReduceCmp            0      0.00%     55.47% # Type of FU issued
system.cpu0.iq.FU_type_0::SimdAes                   0      0.00%     55.47% # Type of FU issued
system.cpu0.iq.FU_type_0::SimdAesMix                0      0.00%     55.47% # Type of FU issued
system.cpu0.iq.FU_type_0::SimdSha1Hash              0      0.00%     55.47% # Type of FU issued
system.cpu0.iq.FU_type_0::SimdSha1Hash2             0      0.00%     55.47% # Type of FU issued
system.cpu0.iq.FU_type_0::SimdSha256Hash            0      0.00%     55.47% # Type of FU issued
system.cpu0.iq.FU_type_0::SimdSha256Hash2            0      0.00%     55.47% # Type of FU issued
system.cpu0.iq.FU_type_0::SimdShaSigma2             0      0.00%     55.47% # Type of FU issued
system.cpu0.iq.FU_type_0::SimdShaSigma3             0      0.00%     55.47% # Type of FU issued
system.cpu0.iq.FU_type_0::SimdPredAlu               0      0.00%     55.47% # Type of FU issued
system.cpu0.iq.FU_type_0::MemRead           300888662     32.38%     87.85% # Type of FU issued
system.cpu0.iq.FU_type_0::MemWrite          112914191     12.15%    100.00% # Type of FU issued
system.cpu0.iq.FU_type_0::FloatMemRead              8      0.00%    100.00% # Type of FU issued
system.cpu0.iq.FU_type_0::FloatMemWrite            18      0.00%    100.00% # Type of FU issued
system.cpu0.iq.FU_type_0::IprAccess                 0      0.00%    100.00% # Type of FU issued
system.cpu0.iq.FU_type_0::InstPrefetch              0      0.00%    100.00% # Type of FU issued
system.cpu0.iq.FU_type_0::total             929250822                       # Type of FU issued
system.cpu0.iq.fp_alu_accesses                     50                       # Number of floating point alu accesses
system.cpu0.iq.fp_inst_queue_reads                 98                       # Number of floating instruction queue reads
system.cpu0.iq.fp_inst_queue_wakeup_accesses           48                       # Number of floating instruction queue wakeup accesses
system.cpu0.iq.fp_inst_queue_writes                56                       # Number of floating instruction queue writes
system.cpu0.iq.fu_busy_cnt                    1007977                       # FU busy when requested
system.cpu0.iq.fu_busy_rate                  0.001085                       # FU busy rate (busy events/executed inst)
system.cpu0.iq.fu_full::No_OpClass                  0      0.00%      0.00% # attempts to use FU when none available
system.cpu0.iq.fu_full::IntAlu                 173273     17.19%     17.19% # attempts to use FU when none available
system.cpu0.iq.fu_full::IntMult                     0      0.00%     17.19% # attempts to use FU when none available
system.cpu0.iq.fu_full::IntDiv                      0      0.00%     17.19% # attempts to use FU when none available
system.cpu0.iq.fu_full::FloatAdd                    0      0.00%     17.19% # attempts to use FU when none available
system.cpu0.iq.fu_full::FloatCmp                    0      0.00%     17.19% # attempts to use FU when none available
system.cpu0.iq.fu_full::FloatCvt                    0      0.00%     17.19% # attempts to use FU when none available
system.cpu0.iq.fu_full::FloatMult                   0      0.00%     17.19% # attempts to use FU when none available
system.cpu0.iq.fu_full::FloatMultAcc                0      0.00%     17.19% # attempts to use FU when none available
system.cpu0.iq.fu_full::FloatDiv                    0      0.00%     17.19% # attempts to use FU when none available
system.cpu0.iq.fu_full::FloatMisc                   0      0.00%     17.19% # attempts to use FU when none available
system.cpu0.iq.fu_full::FloatSqrt                   0      0.00%     17.19% # attempts to use FU when none available
system.cpu0.iq.fu_full::SimdAdd                     0      0.00%     17.19% # attempts to use FU when none available
system.cpu0.iq.fu_full::SimdAddAcc                  0      0.00%     17.19% # attempts to use FU when none available
system.cpu0.iq.fu_full::SimdAlu                     0      0.00%     17.19% # attempts to use FU when none available
system.cpu0.iq.fu_full::SimdCmp                     0      0.00%     17.19% # attempts to use FU when none available
system.cpu0.iq.fu_full::SimdCvt                     0      0.00%     17.19% # attempts to use FU when none available
system.cpu0.iq.fu_full::SimdMisc                    0      0.00%     17.19% # attempts to use FU when none available
system.cpu0.iq.fu_full::SimdMult                    0      0.00%     17.19% # attempts to use FU when none available
system.cpu0.iq.fu_full::SimdMultAcc                 0      0.00%     17.19% # attempts to use FU when none available
system.cpu0.iq.fu_full::SimdShift                   0      0.00%     17.19% # attempts to use FU when none available
system.cpu0.iq.fu_full::SimdShiftAcc                0      0.00%     17.19% # attempts to use FU when none available
system.cpu0.iq.fu_full::SimdDiv                     0      0.00%     17.19% # attempts to use FU when none available
system.cpu0.iq.fu_full::SimdSqrt                    0      0.00%     17.19% # attempts to use FU when none available
system.cpu0.iq.fu_full::SimdFloatAdd                0      0.00%     17.19% # attempts to use FU when none available
system.cpu0.iq.fu_full::SimdFloatAlu                0      0.00%     17.19% # attempts to use FU when none available
system.cpu0.iq.fu_full::SimdFloatCmp                0      0.00%     17.19% # attempts to use FU when none available
system.cpu0.iq.fu_full::SimdFloatCvt                0      0.00%     17.19% # attempts to use FU when none available
system.cpu0.iq.fu_full::SimdFloatDiv                0      0.00%     17.19% # attempts to use FU when none available
system.cpu0.iq.fu_full::SimdFloatMisc               0      0.00%     17.19% # attempts to use FU when none available
system.cpu0.iq.fu_full::SimdFloatMult               0      0.00%     17.19% # attempts to use FU when none available
system.cpu0.iq.fu_full::SimdFloatMultAcc            0      0.00%     17.19% # attempts to use FU when none available
system.cpu0.iq.fu_full::SimdFloatSqrt               0      0.00%     17.19% # attempts to use FU when none available
system.cpu0.iq.fu_full::SimdReduceAdd               0      0.00%     17.19% # attempts to use FU when none available
system.cpu0.iq.fu_full::SimdReduceAlu               0      0.00%     17.19% # attempts to use FU when none available
system.cpu0.iq.fu_full::SimdReduceCmp               0      0.00%     17.19% # attempts to use FU when none available
system.cpu0.iq.fu_full::SimdFloatReduceAdd            0      0.00%     17.19% # attempts to use FU when none available
system.cpu0.iq.fu_full::SimdFloatReduceCmp            0      0.00%     17.19% # attempts to use FU when none available
system.cpu0.iq.fu_full::SimdAes                     0      0.00%     17.19% # attempts to use FU when none available
system.cpu0.iq.fu_full::SimdAesMix                  0      0.00%     17.19% # attempts to use FU when none available
system.cpu0.iq.fu_full::SimdSha1Hash                0      0.00%     17.19% # attempts to use FU when none available
system.cpu0.iq.fu_full::SimdSha1Hash2               0      0.00%     17.19% # attempts to use FU when none available
system.cpu0.iq.fu_full::SimdSha256Hash              0      0.00%     17.19% # attempts to use FU when none available
system.cpu0.iq.fu_full::SimdSha256Hash2             0      0.00%     17.19% # attempts to use FU when none available
system.cpu0.iq.fu_full::SimdShaSigma2               0      0.00%     17.19% # attempts to use FU when none available
system.cpu0.iq.fu_full::SimdShaSigma3               0      0.00%     17.19% # attempts to use FU when none available
system.cpu0.iq.fu_full::SimdPredAlu                 0      0.00%     17.19% # attempts to use FU when none available
system.cpu0.iq.fu_full::MemRead                749057     74.31%     91.50% # attempts to use FU when none available
system.cpu0.iq.fu_full::MemWrite                85645      8.50%    100.00% # attempts to use FU when none available
system.cpu0.iq.fu_full::FloatMemRead                0      0.00%    100.00% # attempts to use FU when none available
system.cpu0.iq.fu_full::FloatMemWrite               2      0.00%    100.00% # attempts to use FU when none available
system.cpu0.iq.fu_full::IprAccess                   0      0.00%    100.00% # attempts to use FU when none available
system.cpu0.iq.fu_full::InstPrefetch                0      0.00%    100.00% # attempts to use FU when none available
system.cpu0.iq.int_alu_accesses             928615405                       # Number of integer alu accesses
system.cpu0.iq.int_inst_queue_reads        3459817445                       # Number of integer instruction queue reads
system.cpu0.iq.int_inst_queue_wakeup_accesses    915458961                       # Number of integer instruction queue wakeup accesses
system.cpu0.iq.int_inst_queue_writes        975839193                       # Number of integer instruction queue writes
system.cpu0.iq.iqInstsAdded                 931050111                       # Number of instructions added to the IQ (excludes non-spec)
system.cpu0.iq.iqInstsIssued                929250822                       # Number of instructions issued
system.cpu0.iq.iqNonSpecInstsAdded            3477806                       # Number of non-speculative instructions added to the IQ
system.cpu0.iq.iqSquashedInstsExamined       41302924                       # Number of squashed instructions iterated over during squash; mainly for profiling
system.cpu0.iq.iqSquashedInstsIssued            60176                       # Number of squashed instructions issued
system.cpu0.iq.iqSquashedNonSpecRemoved       1011636                       # Number of squashed non-spec instructions that were removed
system.cpu0.iq.iqSquashedOperandsExamined     20769506                       # Number of squashed operands that are examined and possibly removed from graph
system.cpu0.iq.issued_per_cycle::samples   1600247747                       # Number of insts issued each cycle
system.cpu0.iq.issued_per_cycle::mean        0.580692                       # Number of insts issued each cycle
system.cpu0.iq.issued_per_cycle::stdev       0.796096                       # Number of insts issued each cycle
system.cpu0.iq.issued_per_cycle::underflows            0      0.00%      0.00% # Number of insts issued each cycle
system.cpu0.iq.issued_per_cycle::0          917711077     57.35%     57.35% # Number of insts issued each cycle
system.cpu0.iq.issued_per_cycle::1          481598338     30.10%     87.44% # Number of insts issued each cycle
system.cpu0.iq.issued_per_cycle::2          167550294     10.47%     97.91% # Number of insts issued each cycle
system.cpu0.iq.issued_per_cycle::3           25874121      1.62%     99.53% # Number of insts issued each cycle
system.cpu0.iq.issued_per_cycle::4            4801424      0.30%     99.83% # Number of insts issued each cycle
system.cpu0.iq.issued_per_cycle::5             829588      0.05%     99.88% # Number of insts issued each cycle
system.cpu0.iq.issued_per_cycle::6            1685527      0.11%     99.99% # Number of insts issued each cycle
system.cpu0.iq.issued_per_cycle::7             116289      0.01%     99.99% # Number of insts issued each cycle
system.cpu0.iq.issued_per_cycle::8              81089      0.01%    100.00% # Number of insts issued each cycle
system.cpu0.iq.issued_per_cycle::overflows            0      0.00%    100.00% # Number of insts issued each cycle
system.cpu0.iq.issued_per_cycle::min_value            0                       # Number of insts issued each cycle
system.cpu0.iq.issued_per_cycle::max_value            8                       # Number of insts issued each cycle
system.cpu0.iq.issued_per_cycle::total     1600247747                       # Number of insts issued each cycle
system.cpu0.iq.rate                          0.534462                       # Inst issue rate
system.cpu0.iq.vec_alu_accesses                     0                       # Number of vector alu accesses
system.cpu0.iq.vec_inst_queue_reads                 0                       # Number of vector instruction queue reads
system.cpu0.iq.vec_inst_queue_wakeup_accesses            0                       # Number of vector instruction queue wakeup accesses
system.cpu0.iq.vec_inst_queue_writes                0                       # Number of vector instruction queue writes
system.cpu0.itb.accesses                            0                       # DTB accesses
system.cpu0.itb.hits                                0                       # DTB hits
system.cpu0.itb.misses                              0                       # DTB misses
system.cpu0.itb.read_accesses                       0                       # DTB read accesses
system.cpu0.itb.read_hits                           0                       # DTB read hits
system.cpu0.itb.read_misses                         0                       # DTB read misses
system.cpu0.itb.write_accesses                      0                       # DTB write accesses
system.cpu0.itb.write_hits                          0                       # DTB write hits
system.cpu0.itb.write_misses                        0                       # DTB write misses
system.cpu0.memDep0.conflictingLoads         10739660                       # Number of conflicting loads.
system.cpu0.memDep0.conflictingStores         1791798                       # Number of conflicting stores.
system.cpu0.memDep0.insertedLoads           298988156                       # Number of loads inserted to the mem dependence unit.
system.cpu0.memDep0.insertedStores          114905287                       # Number of stores inserted to the mem dependence unit.
system.cpu0.misc_regfile_reads                   1515                       # number of misc regfile reads
system.cpu0.misc_regfile_writes                    22                       # number of misc regfile writes
system.cpu0.numCycles                      1738667337                       # number of cpu cycles simulated
system.cpu0.numWorkItemsCompleted                   0                       # number of work items this cpu completed
system.cpu0.numWorkItemsStarted                     0                       # number of work items this cpu started
system.cpu0.quiesceCycles                    26137400                       # Total number of cycles that CPU has spent quiesced or waiting for an interrupt
system.cpu0.rename.BlockCycles              180310635                       # Number of cycles rename is blocking
system.cpu0.rename.CommittedMaps            569159207                       # Number of HB maps that are committed
system.cpu0.rename.IQFullEvents               4304634                       # Number of times rename has blocked due to IQ full
system.cpu0.rename.IdleCycles               717486032                       # Number of cycles rename is idle
system.cpu0.rename.LQFullEvents               8267799                       # Number of times rename has blocked due to LQ full
system.cpu0.rename.ROBFullEvents                 6295                       # Number of times rename has blocked due to ROB full
system.cpu0.rename.RenameLookups           1150769715                       # Number of register rename lookups that rename has made
system.cpu0.rename.RenamedInsts             943699874                       # Number of instructions processed by rename
system.cpu0.rename.RenamedOperands          605533439                       # Number of destination operands rename has renamed
system.cpu0.rename.RunCycles                669829521                       # Number of cycles rename is running
system.cpu0.rename.SQFullEvents              12640966                       # Number of times rename has blocked due to SQ full
system.cpu0.rename.SquashCycles               6850357                       # Number of cycles rename is squashing
system.cpu0.rename.UnblockCycles             25637548                       # Number of cycles rename is unblocking
system.cpu0.rename.UndoneMaps                36374224                       # Number of HB maps that are undone due to squashing
system.cpu0.rename.fp_rename_lookups               45                       # Number of floating rename lookups
system.cpu0.rename.int_rename_lookups      1150769670                       # Number of integer rename lookups
system.cpu0.rename.serializeStallCycles        133654                       # count of cycles rename stalled for serializing inst
system.cpu0.rename.serializingInsts              4622                       # count of serializing insts renamed
system.cpu0.rename.skidInsts                 10889968                       # count of insts added to the skid buffer
system.cpu0.rename.tempSerializingInsts          4607                       # count of temporary serializing insts renamed
system.cpu0.rob.rob_reads                  2494929521                       # The number of ROB reads
system.cpu0.rob.rob_writes                 1879295674                       # The number of ROB writes
system.cpu0.timesIdled                       25955791                       # Number of times that the entire CPU went into an idle state and unscheduled itself
system.cpu0.workload.numSyscalls                 1482                       # Number of system calls
system.cpu1.branchPred.BTBCorrect                   0                       # Number of correct BTB predictions (this stat may not work properly.
system.cpu1.branchPred.BTBHitPct            85.425547                       # BTB Hit Percentage
system.cpu1.branchPred.BTBHits               10814823                       # Number of BTB hits
system.cpu1.branchPred.BTBLookups            12659940                       # Number of BTB lookups
system.cpu1.branchPred.RASInCorrect                 0                       # Number of incorrect RAS predictions.
system.cpu1.branchPred.condIncorrect          2831424                       # Number of conditional branches incorrect
system.cpu1.branchPred.condPredicted         17882734                       # Number of conditional branches predicted
system.cpu1.branchPred.indirectHits            219776                       # Number of indirect target hits.
system.cpu1.branchPred.indirectLookups         314439                       # Number of indirect predictor lookups.
system.cpu1.branchPred.indirectMisses           94663                       # Number of indirect misses.
system.cpu1.branchPred.lookups               20296441                       # Number of BP lookups
system.cpu1.branchPred.usedRAS                      0                       # Number of times the RAS was used to get a target.
system.cpu1.branchPredindirectMispredicted        23814                       # Number of mispredicted indirect branches.
system.cpu1.commit.amos                        819651                       # Number of atomic instructions committed
system.cpu1.commit.branchMispredicts          1966904                       # The number of times a branch was mispredicted
system.cpu1.commit.branches                  10298882                       # Number of branches committed
system.cpu1.commit.bw_lim_events               737050                       # number cycles where commit BW limit reached
system.cpu1.commit.commitNonSpecStalls        2459639                       # The number of times commit has been forced to stall to communicate backwards
system.cpu1.commit.commitSquashedInsts       29874930                       # The number of squashed insts skipped by commit
system.cpu1.commit.committedInsts            41842827                       # Number of instructions committed
system.cpu1.commit.committedOps              42662668                       # Number of ops (including micro ops) committed
system.cpu1.commit.committed_per_cycle::samples    232528318                       # Number of insts commited each cycle
system.cpu1.commit.committed_per_cycle::mean     0.183473                       # Number of insts commited each cycle
system.cpu1.commit.committed_per_cycle::stdev     0.777389                       # Number of insts commited each cycle
system.cpu1.commit.committed_per_cycle::underflows            0      0.00%      0.00% # Number of insts commited each cycle
system.cpu1.commit.committed_per_cycle::0    212850562     91.54%     91.54% # Number of insts commited each cycle
system.cpu1.commit.committed_per_cycle::1      9665669      4.16%     95.69% # Number of insts commited each cycle
system.cpu1.commit.committed_per_cycle::2      4210592      1.81%     97.51% # Number of insts commited each cycle
system.cpu1.commit.committed_per_cycle::3      3128323      1.35%     98.85% # Number of insts commited each cycle
system.cpu1.commit.committed_per_cycle::4      1102026      0.47%     99.32% # Number of insts commited each cycle
system.cpu1.commit.committed_per_cycle::5       197498      0.08%     99.41% # Number of insts commited each cycle
system.cpu1.commit.committed_per_cycle::6       557334      0.24%     99.65% # Number of insts commited each cycle
system.cpu1.commit.committed_per_cycle::7        79264      0.03%     99.68% # Number of insts commited each cycle
system.cpu1.commit.committed_per_cycle::8       737050      0.32%    100.00% # Number of insts commited each cycle
system.cpu1.commit.committed_per_cycle::overflows            0      0.00%    100.00% # Number of insts commited each cycle
system.cpu1.commit.committed_per_cycle::min_value            0                       # Number of insts commited each cycle
system.cpu1.commit.committed_per_cycle::max_value            8                       # Number of insts commited each cycle
system.cpu1.commit.committed_per_cycle::total    232528318                       # Number of insts commited each cycle
system.cpu1.commit.fp_insts                        12                       # Number of committed floating point instructions.
system.cpu1.commit.function_calls              317362                       # Number of function calls committed.
system.cpu1.commit.int_insts                 40177725                       # Number of committed integer instructions.
system.cpu1.commit.loads                     11551642                       # Number of loads committed
system.cpu1.commit.membars                    1639363                       # Number of memory barriers committed
system.cpu1.commit.op_class_0::No_OpClass      1639363      3.84%      3.84% # Class of committed instruction
system.cpu1.commit.op_class_0::IntAlu        24986880     58.57%     62.41% # Class of committed instruction
system.cpu1.commit.op_class_0::IntMult             43      0.00%     62.41% # Class of committed instruction
system.cpu1.commit.op_class_0::IntDiv              86      0.00%     62.41% # Class of committed instruction
system.cpu1.commit.op_class_0::FloatAdd             0      0.00%     62.41% # Class of committed instruction
system.cpu1.commit.op_class_0::FloatCmp             0      0.00%     62.41% # Class of committed instruction
system.cpu1.commit.op_class_0::FloatCvt             0      0.00%     62.41% # Class of committed instruction
system.cpu1.commit.op_class_0::FloatMult            0      0.00%     62.41% # Class of committed instruction
system.cpu1.commit.op_class_0::FloatMultAcc            0      0.00%     62.41% # Class of committed instruction
system.cpu1.commit.op_class_0::FloatDiv             0      0.00%     62.41% # Class of committed instruction
system.cpu1.commit.op_class_0::FloatMisc            0      0.00%     62.41% # Class of committed instruction
system.cpu1.commit.op_class_0::FloatSqrt            0      0.00%     62.41% # Class of committed instruction
system.cpu1.commit.op_class_0::SimdAdd              0      0.00%     62.41% # Class of committed instruction
system.cpu1.commit.op_class_0::SimdAddAcc            0      0.00%     62.41% # Class of committed instruction
system.cpu1.commit.op_class_0::SimdAlu              0      0.00%     62.41% # Class of committed instruction
system.cpu1.commit.op_class_0::SimdCmp              0      0.00%     62.41% # Class of committed instruction
system.cpu1.commit.op_class_0::SimdCvt              0      0.00%     62.41% # Class of committed instruction
system.cpu1.commit.op_class_0::SimdMisc             0      0.00%     62.41% # Class of committed instruction
system.cpu1.commit.op_class_0::SimdMult             0      0.00%     62.41% # Class of committed instruction
system.cpu1.commit.op_class_0::SimdMultAcc            0      0.00%     62.41% # Class of committed instruction
system.cpu1.commit.op_class_0::SimdShift            0      0.00%     62.41% # Class of committed instruction
system.cpu1.commit.op_class_0::SimdShiftAcc            0      0.00%     62.41% # Class of committed instruction
system.cpu1.commit.op_class_0::SimdDiv              0      0.00%     62.41% # Class of committed instruction
system.cpu1.commit.op_class_0::SimdSqrt             0      0.00%     62.41% # Class of committed instruction
system.cpu1.commit.op_class_0::SimdFloatAdd            0      0.00%     62.41% # Class of committed instruction
system.cpu1.commit.op_class_0::SimdFloatAlu            0      0.00%     62.41% # Class of committed instruction
system.cpu1.commit.op_class_0::SimdFloatCmp            0      0.00%     62.41% # Class of committed instruction
system.cpu1.commit.op_class_0::SimdFloatCvt            0      0.00%     62.41% # Class of committed instruction
system.cpu1.commit.op_class_0::SimdFloatDiv            0      0.00%     62.41% # Class of committed instruction
system.cpu1.commit.op_class_0::SimdFloatMisc            0      0.00%     62.41% # Class of committed instruction
system.cpu1.commit.op_class_0::SimdFloatMult            0      0.00%     62.41% # Class of committed instruction
system.cpu1.commit.op_class_0::SimdFloatMultAcc            0      0.00%     62.41% # Class of committed instruction
system.cpu1.commit.op_class_0::SimdFloatSqrt            0      0.00%     62.41% # Class of committed instruction
system.cpu1.commit.op_class_0::SimdReduceAdd            0      0.00%     62.41% # Class of committed instruction
system.cpu1.commit.op_class_0::SimdReduceAlu            0      0.00%     62.41% # Class of committed instruction
system.cpu1.commit.op_class_0::SimdReduceCmp            0      0.00%     62.41% # Class of committed instruction
system.cpu1.commit.op_class_0::SimdFloatReduceAdd            0      0.00%     62.41% # Class of committed instruction
system.cpu1.commit.op_class_0::SimdFloatReduceCmp            0      0.00%     62.41% # Class of committed instruction
system.cpu1.commit.op_class_0::SimdAes              0      0.00%     62.41% # Class of committed instruction
system.cpu1.commit.op_class_0::SimdAesMix            0      0.00%     62.41% # Class of committed instruction
system.cpu1.commit.op_class_0::SimdSha1Hash            0      0.00%     62.41% # Class of committed instruction
system.cpu1.commit.op_class_0::SimdSha1Hash2            0      0.00%     62.41% # Class of committed instruction
system.cpu1.commit.op_class_0::SimdSha256Hash            0      0.00%     62.41% # Class of committed instruction
system.cpu1.commit.op_class_0::SimdSha256Hash2            0      0.00%     62.41% # Class of committed instruction
system.cpu1.commit.op_class_0::SimdShaSigma2            0      0.00%     62.41% # Class of committed instruction
system.cpu1.commit.op_class_0::SimdShaSigma3            0      0.00%     62.41% # Class of committed instruction
system.cpu1.commit.op_class_0::SimdPredAlu            0      0.00%     62.41% # Class of committed instruction
system.cpu1.commit.op_class_0::MemRead       12371293     29.00%     91.41% # Class of committed instruction
system.cpu1.commit.op_class_0::MemWrite       3664991      8.59%    100.00% # Class of committed instruction
system.cpu1.commit.op_class_0::FloatMemRead            0      0.00%    100.00% # Class of committed instruction
system.cpu1.commit.op_class_0::FloatMemWrite           12      0.00%    100.00% # Class of committed instruction
system.cpu1.commit.op_class_0::IprAccess            0      0.00%    100.00% # Class of committed instruction
system.cpu1.commit.op_class_0::InstPrefetch            0      0.00%    100.00% # Class of committed instruction
system.cpu1.commit.op_class_0::total         42662668                       # Class of committed instruction
system.cpu1.commit.refs                      16036296                       # Number of memory references committed
system.cpu1.commit.swp_count                        0                       # Number of s/w prefetches committed
system.cpu1.commit.vec_insts                        0                       # Number of committed Vector instructions.
system.cpu1.committedInsts                   41842827                       # Number of Instructions Simulated
system.cpu1.committedOps                     42662668                       # Number of Ops (including micro ops) Simulated
system.cpu1.cpi                              5.683670                       # CPI: Cycles Per Instruction
system.cpu1.cpi_total                        5.683670                       # CPI: Total CPI of All Threads
system.cpu1.decode.BlockedCycles            178029519                       # Number of cycles decode is blocked
system.cpu1.decode.BranchMispred               868443                       # Number of times decode detected a branch misprediction
system.cpu1.decode.BranchResolved             9919413                       # Number of times decode resolved a branch
system.cpu1.decode.DecodedInsts              81321775                       # Number of instructions handled by decode
system.cpu1.decode.IdleCycles                15963848                       # Number of cycles decode is idle
system.cpu1.decode.RunCycles                 39084986                       # Number of cycles decode is running
system.cpu1.decode.SquashCycles               1967966                       # Number of cycles decode is squashing
system.cpu1.decode.SquashedInsts               703414                       # Number of squashed instructions handled by decode
system.cpu1.decode.UnblockCycles              2376368                       # Number of cycles decode is unblocking
system.cpu1.dtb.accesses                            0                       # DTB accesses
system.cpu1.dtb.hits                                0                       # DTB hits
system.cpu1.dtb.misses                              0                       # DTB misses
system.cpu1.dtb.read_accesses                       0                       # DTB read accesses
system.cpu1.dtb.read_hits                           0                       # DTB read hits
system.cpu1.dtb.read_misses                         0                       # DTB read misses
system.cpu1.dtb.write_accesses                      0                       # DTB write accesses
system.cpu1.dtb.write_hits                          0                       # DTB write hits
system.cpu1.dtb.write_misses                        0                       # DTB write misses
system.cpu1.fetch.Branches                   20296441                       # Number of branches that fetch encountered
system.cpu1.fetch.CacheLines                 12465565                       # Number of cache lines fetched
system.cpu1.fetch.Cycles                    220376532                       # Number of cycles fetch has run and was not squashing or blocked
system.cpu1.fetch.IcacheSquashes               469421                       # Number of outstanding Icache misses that were squashed
system.cpu1.fetch.IcacheWaitRetryStallCycles           11                       # Number of stall cycles due to full MSHR
system.cpu1.fetch.Insts                      91993271                       # Number of instructions fetch has processed
system.cpu1.fetch.MiscStallCycles                   2                       # Number of cycles fetch has spent waiting on interrupts, or bad addresses, or out of MSHRs
system.cpu1.fetch.SquashCycles                5664972                       # Number of cycles fetch has spent squashing
system.cpu1.fetch.branchRate                 0.085343                       # Number of branch fetches per cycle
system.cpu1.fetch.icacheStallCycles          14213656                       # Number of cycles fetch is stalled on an Icache miss
system.cpu1.fetch.predictedBranches          11034599                       # Number of branches that fetch has predicted taken
system.cpu1.fetch.rate                       0.386818                       # Number of inst fetches per cycle
system.cpu1.fetch.rateDist::samples         237422687                       # Number of instructions fetched each cycle (Total)
system.cpu1.fetch.rateDist::mean             0.400333                       # Number of instructions fetched each cycle (Total)
system.cpu1.fetch.rateDist::stdev            0.888509                       # Number of instructions fetched each cycle (Total)
system.cpu1.fetch.rateDist::underflows              0      0.00%      0.00% # Number of instructions fetched each cycle (Total)
system.cpu1.fetch.rateDist::0               181324790     76.37%     76.37% # Number of instructions fetched each cycle (Total)
system.cpu1.fetch.rateDist::1                32747449     13.79%     90.17% # Number of instructions fetched each cycle (Total)
system.cpu1.fetch.rateDist::2                14724904      6.20%     96.37% # Number of instructions fetched each cycle (Total)
system.cpu1.fetch.rateDist::3                 4577606      1.93%     98.30% # Number of instructions fetched each cycle (Total)
system.cpu1.fetch.rateDist::4                 1800909      0.76%     99.05% # Number of instructions fetched each cycle (Total)
system.cpu1.fetch.rateDist::5                 1627994      0.69%     99.74% # Number of instructions fetched each cycle (Total)
system.cpu1.fetch.rateDist::6                  587191      0.25%     99.99% # Number of instructions fetched each cycle (Total)
system.cpu1.fetch.rateDist::7                    3550      0.00%     99.99% # Number of instructions fetched each cycle (Total)
system.cpu1.fetch.rateDist::8                   28294      0.01%    100.00% # Number of instructions fetched each cycle (Total)
system.cpu1.fetch.rateDist::overflows               0      0.00%    100.00% # Number of instructions fetched each cycle (Total)
system.cpu1.fetch.rateDist::min_value               0                       # Number of instructions fetched each cycle (Total)
system.cpu1.fetch.rateDist::max_value               8                       # Number of instructions fetched each cycle (Total)
system.cpu1.fetch.rateDist::total           237422687                       # Number of instructions fetched each cycle (Total)
system.cpu1.fp_regfile_reads                       12                       # number of floating regfile reads
system.cpu1.idleCycles                         398124                       # Total number of cycles that the CPU has spent unscheduled due to idling
system.cpu1.iew.branchMispredicts             2006842                       # Number of branch mispredicts detected at execute
system.cpu1.iew.exec_branches                13426229                       # Number of branches executed
system.cpu1.iew.exec_nop                            0                       # number of nop insts executed
system.cpu1.iew.exec_rate                    0.220576                       # Inst execution rate
system.cpu1.iew.exec_refs                    18203855                       # number of memory reference insts executed
system.cpu1.iew.exec_stores                   5269921                       # Number of stores executed
system.cpu1.iew.exec_swp                            0                       # number of swp insts executed
system.cpu1.iew.iewBlockCycles              155924475                       # Number of cycles IEW is blocking
system.cpu1.iew.iewDispLoadInsts             19969176                       # Number of dispatched load instructions
system.cpu1.iew.iewDispNonSpecInsts           2030165                       # Number of dispatched non-speculative instructions
system.cpu1.iew.iewDispSquashedInsts          1387355                       # Number of squashed instructions skipped by dispatch
system.cpu1.iew.iewDispStoreInsts             8222478                       # Number of dispatched store instructions
system.cpu1.iew.iewDispatchedInsts           72518368                       # Number of instructions dispatched to IQ
system.cpu1.iew.iewExecLoadInsts             12933934                       # Number of load instructions executed
system.cpu1.iew.iewExecSquashedInsts          1540971                       # Number of squashed instructions skipped in execute
system.cpu1.iew.iewExecutedInsts             52457455                       # Number of executed instructions
system.cpu1.iew.iewIQFullEvents                827246                       # Number of times the IQ has become full, causing a stall
system.cpu1.iew.iewIdleCycles                       0                       # Number of cycles IEW is idle
system.cpu1.iew.iewLSQFullEvents               736897                       # Number of times the LSQ has become full, causing a stall
system.cpu1.iew.iewSquashCycles               1967966                       # Number of cycles IEW is squashing
system.cpu1.iew.iewUnblockCycles              2262973                       # Number of cycles IEW is unblocking
system.cpu1.iew.lsq.thread0.blockedLoads            0                       # Number of blocked loads due to partial load-store forwarding
system.cpu1.iew.lsq.thread0.cacheBlocked        39202                       # Number of times an access to memory failed due to the cache being blocked
system.cpu1.iew.lsq.thread0.forwLoads          217389                       # Number of loads that had data forwarded from stores
system.cpu1.iew.lsq.thread0.ignoredResponses        12513                       # Number of memory responses ignored because the instruction is squashed
system.cpu1.iew.lsq.thread0.invAddrLoads            0                       # Number of loads ignored due to an invalid address
system.cpu1.iew.lsq.thread0.invAddrSwpfs            0                       # Number of software prefetches ignored due to an invalid address
system.cpu1.iew.lsq.thread0.memOrderViolation         2249                       # Number of memory ordering violations
system.cpu1.iew.lsq.thread0.rescheduledLoads         2438                       # Number of loads that were rescheduled
system.cpu1.iew.lsq.thread0.squashedLoads      8417534                       # Number of loads squashed
system.cpu1.iew.lsq.thread0.squashedStores      3737824                       # Number of stores squashed
system.cpu1.iew.memOrderViolationEvents          2249                       # Number of memory order violations
system.cpu1.iew.predictedNotTakenIncorrect       635693                       # Number of branches that were predicted not taken incorrectly
system.cpu1.iew.predictedTakenIncorrect       1371149                       # Number of branches that were predicted taken incorrectly
system.cpu1.iew.wb_consumers                 25354653                       # num instructions consuming a value
system.cpu1.iew.wb_count                     51566745                       # cumulative count of insts written-back
system.cpu1.iew.wb_fanout                    0.778040                       # average fanout of values written-back
system.cpu1.iew.wb_producers                 19726943                       # num instructions producing a value
system.cpu1.iew.wb_rate                      0.216830                       # insts written-back per cycle
system.cpu1.iew.wb_sent                      51592704                       # cumulative count of insts sent to commit
system.cpu1.int_regfile_reads                67527515                       # number of integer regfile reads
system.cpu1.int_regfile_writes               32266212                       # number of integer regfile writes
system.cpu1.ipc                              0.175943                       # IPC: Instructions Per Cycle
system.cpu1.ipc_total                        0.175943                       # IPC: Total IPC of All Threads
system.cpu1.iq.FU_type_0::No_OpClass          1639580      3.04%      3.04% # Type of FU issued
system.cpu1.iq.FU_type_0::IntAlu             33643732     62.31%     65.34% # Type of FU issued
system.cpu1.iq.FU_type_0::IntMult                  55      0.00%     65.34% # Type of FU issued
system.cpu1.iq.FU_type_0::IntDiv                   86      0.00%     65.34% # Type of FU issued
system.cpu1.iq.FU_type_0::FloatAdd                  0      0.00%     65.34% # Type of FU issued
system.cpu1.iq.FU_type_0::FloatCmp                  0      0.00%     65.34% # Type of FU issued
system.cpu1.iq.FU_type_0::FloatCvt                  0      0.00%     65.34% # Type of FU issued
system.cpu1.iq.FU_type_0::FloatMult                 0      0.00%     65.34% # Type of FU issued
system.cpu1.iq.FU_type_0::FloatMultAcc              0      0.00%     65.34% # Type of FU issued
system.cpu1.iq.FU_type_0::FloatDiv                  0      0.00%     65.34% # Type of FU issued
system.cpu1.iq.FU_type_0::FloatMisc                 0      0.00%     65.34% # Type of FU issued
system.cpu1.iq.FU_type_0::FloatSqrt                 0      0.00%     65.34% # Type of FU issued
system.cpu1.iq.FU_type_0::SimdAdd                   0      0.00%     65.34% # Type of FU issued
system.cpu1.iq.FU_type_0::SimdAddAcc                0      0.00%     65.34% # Type of FU issued
system.cpu1.iq.FU_type_0::SimdAlu                   0      0.00%     65.34% # Type of FU issued
system.cpu1.iq.FU_type_0::SimdCmp                   0      0.00%     65.34% # Type of FU issued
system.cpu1.iq.FU_type_0::SimdCvt                   0      0.00%     65.34% # Type of FU issued
system.cpu1.iq.FU_type_0::SimdMisc                  0      0.00%     65.34% # Type of FU issued
system.cpu1.iq.FU_type_0::SimdMult                  0      0.00%     65.34% # Type of FU issued
system.cpu1.iq.FU_type_0::SimdMultAcc               0      0.00%     65.34% # Type of FU issued
system.cpu1.iq.FU_type_0::SimdShift                 0      0.00%     65.34% # Type of FU issued
system.cpu1.iq.FU_type_0::SimdShiftAcc              0      0.00%     65.34% # Type of FU issued
system.cpu1.iq.FU_type_0::SimdDiv                   0      0.00%     65.34% # Type of FU issued
system.cpu1.iq.FU_type_0::SimdSqrt                  0      0.00%     65.34% # Type of FU issued
system.cpu1.iq.FU_type_0::SimdFloatAdd              0      0.00%     65.34% # Type of FU issued
system.cpu1.iq.FU_type_0::SimdFloatAlu              0      0.00%     65.34% # Type of FU issued
system.cpu1.iq.FU_type_0::SimdFloatCmp              0      0.00%     65.34% # Type of FU issued
system.cpu1.iq.FU_type_0::SimdFloatCvt              0      0.00%     65.34% # Type of FU issued
system.cpu1.iq.FU_type_0::SimdFloatDiv              0      0.00%     65.34% # Type of FU issued
system.cpu1.iq.FU_type_0::SimdFloatMisc             0      0.00%     65.34% # Type of FU issued
system.cpu1.iq.FU_type_0::SimdFloatMult             0      0.00%     65.34% # Type of FU issued
system.cpu1.iq.FU_type_0::SimdFloatMultAcc            0      0.00%     65.34% # Type of FU issued
system.cpu1.iq.FU_type_0::SimdFloatSqrt             0      0.00%     65.34% # Type of FU issued
system.cpu1.iq.FU_type_0::SimdReduceAdd             0      0.00%     65.34% # Type of FU issued
system.cpu1.iq.FU_type_0::SimdReduceAlu             0      0.00%     65.34% # Type of FU issued
system.cpu1.iq.FU_type_0::SimdReduceCmp             0      0.00%     65.34% # Type of FU issued
system.cpu1.iq.FU_type_0::SimdFloatReduceAdd            0      0.00%     65.34% # Type of FU issued
system.cpu1.iq.FU_type_0::SimdFloatReduceCmp            0      0.00%     65.34% # Type of FU issued
system.cpu1.iq.FU_type_0::SimdAes                   0      0.00%     65.34% # Type of FU issued
system.cpu1.iq.FU_type_0::SimdAesMix                0      0.00%     65.34% # Type of FU issued
system.cpu1.iq.FU_type_0::SimdSha1Hash              0      0.00%     65.34% # Type of FU issued
system.cpu1.iq.FU_type_0::SimdSha1Hash2             0      0.00%     65.34% # Type of FU issued
system.cpu1.iq.FU_type_0::SimdSha256Hash            0      0.00%     65.34% # Type of FU issued
system.cpu1.iq.FU_type_0::SimdSha256Hash2            0      0.00%     65.34% # Type of FU issued
system.cpu1.iq.FU_type_0::SimdShaSigma2             0      0.00%     65.34% # Type of FU issued
system.cpu1.iq.FU_type_0::SimdShaSigma3             0      0.00%     65.34% # Type of FU issued
system.cpu1.iq.FU_type_0::SimdPredAlu               0      0.00%     65.34% # Type of FU issued
system.cpu1.iq.FU_type_0::MemRead            14107293     26.13%     91.47% # Type of FU issued
system.cpu1.iq.FU_type_0::MemWrite            4607668      8.53%    100.00% # Type of FU issued
system.cpu1.iq.FU_type_0::FloatMemRead              0      0.00%    100.00% # Type of FU issued
system.cpu1.iq.FU_type_0::FloatMemWrite            12      0.00%    100.00% # Type of FU issued
system.cpu1.iq.FU_type_0::IprAccess                 0      0.00%    100.00% # Type of FU issued
system.cpu1.iq.FU_type_0::InstPrefetch              0      0.00%    100.00% # Type of FU issued
system.cpu1.iq.FU_type_0::total              53998426                       # Type of FU issued
system.cpu1.iq.fp_alu_accesses                     14                       # Number of floating point alu accesses
system.cpu1.iq.fp_inst_queue_reads                 26                       # Number of floating instruction queue reads
system.cpu1.iq.fp_inst_queue_wakeup_accesses           12                       # Number of floating instruction queue wakeup accesses
system.cpu1.iq.fp_inst_queue_writes                12                       # Number of floating instruction queue writes
system.cpu1.iq.fu_busy_cnt                     918499                       # FU busy when requested
system.cpu1.iq.fu_busy_rate                  0.017010                       # FU busy rate (busy events/executed inst)
system.cpu1.iq.fu_full::No_OpClass                  0      0.00%      0.00% # attempts to use FU when none available
system.cpu1.iq.fu_full::IntAlu                 145561     15.85%     15.85% # attempts to use FU when none available
system.cpu1.iq.fu_full::IntMult                     0      0.00%     15.85% # attempts to use FU when none available
system.cpu1.iq.fu_full::IntDiv                      0      0.00%     15.85% # attempts to use FU when none available
system.cpu1.iq.fu_full::FloatAdd                    0      0.00%     15.85% # attempts to use FU when none available
system.cpu1.iq.fu_full::FloatCmp                    0      0.00%     15.85% # attempts to use FU when none available
system.cpu1.iq.fu_full::FloatCvt                    0      0.00%     15.85% # attempts to use FU when none available
system.cpu1.iq.fu_full::FloatMult                   0      0.00%     15.85% # attempts to use FU when none available
system.cpu1.iq.fu_full::FloatMultAcc                0      0.00%     15.85% # attempts to use FU when none available
system.cpu1.iq.fu_full::FloatDiv                    0      0.00%     15.85% # attempts to use FU when none available
system.cpu1.iq.fu_full::FloatMisc                   0      0.00%     15.85% # attempts to use FU when none available
system.cpu1.iq.fu_full::FloatSqrt                   0      0.00%     15.85% # attempts to use FU when none available
system.cpu1.iq.fu_full::SimdAdd                     0      0.00%     15.85% # attempts to use FU when none available
system.cpu1.iq.fu_full::SimdAddAcc                  0      0.00%     15.85% # attempts to use FU when none available
system.cpu1.iq.fu_full::SimdAlu                     0      0.00%     15.85% # attempts to use FU when none available
system.cpu1.iq.fu_full::SimdCmp                     0      0.00%     15.85% # attempts to use FU when none available
system.cpu1.iq.fu_full::SimdCvt                     0      0.00%     15.85% # attempts to use FU when none available
system.cpu1.iq.fu_full::SimdMisc                    0      0.00%     15.85% # attempts to use FU when none available
system.cpu1.iq.fu_full::SimdMult                    0      0.00%     15.85% # attempts to use FU when none available
system.cpu1.iq.fu_full::SimdMultAcc                 0      0.00%     15.85% # attempts to use FU when none available
system.cpu1.iq.fu_full::SimdShift                   0      0.00%     15.85% # attempts to use FU when none available
system.cpu1.iq.fu_full::SimdShiftAcc                0      0.00%     15.85% # attempts to use FU when none available
system.cpu1.iq.fu_full::SimdDiv                     0      0.00%     15.85% # attempts to use FU when none available
system.cpu1.iq.fu_full::SimdSqrt                    0      0.00%     15.85% # attempts to use FU when none available
system.cpu1.iq.fu_full::SimdFloatAdd                0      0.00%     15.85% # attempts to use FU when none available
system.cpu1.iq.fu_full::SimdFloatAlu                0      0.00%     15.85% # attempts to use FU when none available
system.cpu1.iq.fu_full::SimdFloatCmp                0      0.00%     15.85% # attempts to use FU when none available
system.cpu1.iq.fu_full::SimdFloatCvt                0      0.00%     15.85% # attempts to use FU when none available
system.cpu1.iq.fu_full::SimdFloatDiv                0      0.00%     15.85% # attempts to use FU when none available
system.cpu1.iq.fu_full::SimdFloatMisc               0      0.00%     15.85% # attempts to use FU when none available
system.cpu1.iq.fu_full::SimdFloatMult               0      0.00%     15.85% # attempts to use FU when none available
system.cpu1.iq.fu_full::SimdFloatMultAcc            0      0.00%     15.85% # attempts to use FU when none available
system.cpu1.iq.fu_full::SimdFloatSqrt               0      0.00%     15.85% # attempts to use FU when none available
system.cpu1.iq.fu_full::SimdReduceAdd               0      0.00%     15.85% # attempts to use FU when none available
system.cpu1.iq.fu_full::SimdReduceAlu               0      0.00%     15.85% # attempts to use FU when none available
system.cpu1.iq.fu_full::SimdReduceCmp               0      0.00%     15.85% # attempts to use FU when none available
system.cpu1.iq.fu_full::SimdFloatReduceAdd            0      0.00%     15.85% # attempts to use FU when none available
system.cpu1.iq.fu_full::SimdFloatReduceCmp            0      0.00%     15.85% # attempts to use FU when none available
system.cpu1.iq.fu_full::SimdAes                     0      0.00%     15.85% # attempts to use FU when none available
system.cpu1.iq.fu_full::SimdAesMix                  0      0.00%     15.85% # attempts to use FU when none available
system.cpu1.iq.fu_full::SimdSha1Hash                0      0.00%     15.85% # attempts to use FU when none available
system.cpu1.iq.fu_full::SimdSha1Hash2               0      0.00%     15.85% # attempts to use FU when none available
system.cpu1.iq.fu_full::SimdSha256Hash              0      0.00%     15.85% # attempts to use FU when none available
system.cpu1.iq.fu_full::SimdSha256Hash2             0      0.00%     15.85% # attempts to use FU when none available
system.cpu1.iq.fu_full::SimdShaSigma2               0      0.00%     15.85% # attempts to use FU when none available
system.cpu1.iq.fu_full::SimdShaSigma3               0      0.00%     15.85% # attempts to use FU when none available
system.cpu1.iq.fu_full::SimdPredAlu                 0      0.00%     15.85% # attempts to use FU when none available
system.cpu1.iq.fu_full::MemRead                676822     73.69%     89.54% # attempts to use FU when none available
[...]
system.cpu1.dcache.WriteReq_mshr_misses::total        20979                       # number of WriteReq MSHR misses
system.cpu1.dcache.WriteReq_mshr_miss_latency::.cpu1.data   1897045393                       # number of WriteReq MSHR miss cycles
system.cpu1.dcache.WriteReq_mshr_miss_latency::total   1897045393                       # number of WriteReq MSHR miss cycles
system.cpu1.dcache.WriteReq_mshr_miss_rate::.cpu1.data     0.033304                       # mshr miss rate for WriteReq accesses
system.cpu1.dcache.WriteReq_mshr_miss_rate::total     0.033304                       # mshr miss rate for WriteReq accesses
system.cpu1.dcache.WriteReq_avg_mshr_miss_latency::.cpu1.data 90425.920826                       # average WriteReq mshr miss latency
system.cpu1.dcache.WriteReq_avg_mshr_miss_latency::total 90425.920826                       # average WriteReq mshr miss latency
system.cpu1.dcache.LoadLockedReq_hits::.cpu1.data          970                       # number of LoadLockedReq hits
system.cpu1.dcache.LoadLockedReq_hits::total          970                       # number of LoadLockedReq hits
system.cpu1.dcache.LoadLockedReq_misses::.cpu1.data          350                       # number of LoadLockedReq misses
system.cpu1.dcache.LoadLockedReq_misses::total          350                       # number of LoadLockedReq misses
system.cpu1.dcache.LoadLockedReq_miss_latency::.cpu1.data      9527000                       # number of LoadLockedReq miss cycles
system.cpu1.dcache.LoadLockedReq_miss_latency::total      9527000                       # number of LoadLockedReq miss cycles
system.cpu1.dcache.LoadLockedReq_accesses::.cpu1.data         1320                       # number of LoadLockedReq accesses(hits+misses)
system.cpu1.dcache.LoadLockedReq_accesses::total         1320                       # number of LoadLockedReq accesses(hits+misses)
system.cpu1.dcache.LoadLockedReq_miss_rate::.cpu1.data     0.265152                       # miss rate for LoadLockedReq accesses
system.cpu1.dcache.LoadLockedReq_miss_rate::total     0.265152                       # miss rate for LoadLockedReq accesses
system.cpu1.dcache.LoadLockedReq_avg_miss_latency::.cpu1.data        27220                       # average LoadLockedReq miss latency
system.cpu1.dcache.LoadLockedReq_avg_miss_latency::total        27220                       # average LoadLockedReq miss latency
system.cpu1.dcache.LoadLockedReq_mshr_hits::.cpu1.data          164                       # number of LoadLockedReq MSHR hits
system.cpu1.dcache.LoadLockedReq_mshr_hits::total          164                       # number of LoadLockedReq MSHR hits
system.cpu1.dcache.LoadLockedReq_mshr_misses::.cpu1.data          186                       # number of LoadLockedReq MSHR misses
system.cpu1.dcache.LoadLockedReq_mshr_misses::total          186                       # number of LoadLockedReq MSHR misses
system.cpu1.dcache.LoadLockedReq_mshr_miss_latency::.cpu1.data      1210500                       # number of LoadLockedReq MSHR miss cycles
system.cpu1.dcache.LoadLockedReq_mshr_miss_latency::total      1210500                       # number of LoadLockedReq MSHR miss cycles
system.cpu1.dcache.LoadLockedReq_mshr_miss_rate::.cpu1.data     0.140909                       # mshr miss rate for LoadLockedReq accesses
system.cpu1.dcache.LoadLockedReq_mshr_miss_rate::total     0.140909                       # mshr miss rate for LoadLockedReq accesses
system.cpu1.dcache.LoadLockedReq_avg_mshr_miss_latency::.cpu1.data  6508.064516                       # average LoadLockedReq mshr miss latency
system.cpu1.dcache.LoadLockedReq_avg_mshr_miss_latency::total  6508.064516                       # average LoadLockedReq mshr miss latency
system.cpu1.dcache.StoreCondReq_hits::.cpu1.data          536                       # number of StoreCondReq hits
system.cpu1.dcache.StoreCondReq_hits::total          536                       # number of StoreCondReq hits
system.cpu1.dcache.StoreCondReq_misses::.cpu1.data          429                       # number of StoreCondReq misses
system.cpu1.dcache.StoreCondReq_misses::total          429                       # number of StoreCondReq misses
system.cpu1.dcache.StoreCondReq_miss_latency::.cpu1.data      2321500                       # number of StoreCondReq miss cycles
system.cpu1.dcache.StoreCondReq_miss_latency::total      2321500                       # number of StoreCondReq miss cycles
system.cpu1.dcache.StoreCondReq_accesses::.cpu1.data          965                       # number of StoreCondReq accesses(hits+misses)
system.cpu1.dcache.StoreCondReq_accesses::total          965                       # number of StoreCondReq accesses(hits+misses)
system.cpu1.dcache.StoreCondReq_miss_rate::.cpu1.data     0.444560                       # miss rate for StoreCondReq accesses
system.cpu1.dcache.StoreCondReq_miss_rate::total     0.444560                       # miss rate for StoreCondReq accesses
system.cpu1.dcache.StoreCondReq_avg_miss_latency::.cpu1.data  5411.421911                       # average StoreCondReq miss latency
system.cpu1.dcache.StoreCondReq_avg_miss_latency::total  5411.421911                       # average StoreCondReq miss latency
system.cpu1.dcache.StoreCondReq_mshr_misses::.cpu1.data          428                       # number of StoreCondReq MSHR misses
system.cpu1.dcache.StoreCondReq_mshr_misses::total          428                       # number of StoreCondReq MSHR misses
system.cpu1.dcache.StoreCondReq_mshr_miss_latency::.cpu1.data      1945500                       # number of StoreCondReq MSHR miss cycles
system.cpu1.dcache.StoreCondReq_mshr_miss_latency::total      1945500                       # number of StoreCondReq MSHR miss cycles
system.cpu1.dcache.StoreCondReq_mshr_miss_rate::.cpu1.data     0.443523                       # mshr miss rate for StoreCondReq accesses
system.cpu1.dcache.StoreCondReq_mshr_miss_rate::total     0.443523                       # mshr miss rate for StoreCondReq accesses
system.cpu1.dcache.StoreCondReq_avg_mshr_miss_latency::.cpu1.data  4545.560748                       # average StoreCondReq mshr miss latency
system.cpu1.dcache.StoreCondReq_avg_mshr_miss_latency::total  4545.560748                       # average StoreCondReq mshr miss latency
system.cpu1.dcache.StoreCondFailReq_miss_latency::.cpu1.data       866500                       # number of StoreCondFailReq miss cycles
system.cpu1.dcache.StoreCondFailReq_miss_latency::total       866500                       # number of StoreCondFailReq miss cycles
system.cpu1.dcache.StoreCondFailReq_avg_miss_latency::.cpu1.data          inf                       # average StoreCondFailReq miss latency
system.cpu1.dcache.StoreCondFailReq_avg_miss_latency::total          inf                       # average StoreCondFailReq miss latency
system.cpu1.dcache.StoreCondFailReq_mshr_miss_latency::.cpu1.data       814500                       # number of StoreCondFailReq MSHR miss cycles
system.cpu1.dcache.StoreCondFailReq_mshr_miss_latency::total       814500                       # number of StoreCondFailReq MSHR miss cycles
system.cpu1.dcache.StoreCondFailReq_avg_mshr_miss_latency::.cpu1.data          inf                       # average StoreCondFailReq mshr miss latency
system.cpu1.dcache.StoreCondFailReq_avg_mshr_miss_latency::total          inf                       # average StoreCondFailReq mshr miss latency
system.cpu1.dcache.SwapReq_hits::.cpu1.data          232                       # number of SwapReq hits
system.cpu1.dcache.SwapReq_hits::total            232                       # number of SwapReq hits
system.cpu1.dcache.SwapReq_misses::.cpu1.data          625                       # number of SwapReq misses
system.cpu1.dcache.SwapReq_misses::total          625                       # number of SwapReq misses
system.cpu1.dcache.SwapReq_miss_latency::.cpu1.data      3024000                       # number of SwapReq miss cycles
system.cpu1.dcache.SwapReq_miss_latency::total      3024000                       # number of SwapReq miss cycles
system.cpu1.dcache.SwapReq_accesses::.cpu1.data          857                       # number of SwapReq accesses(hits+misses)
system.cpu1.dcache.SwapReq_accesses::total          857                       # number of SwapReq accesses(hits+misses)
system.cpu1.dcache.SwapReq_miss_rate::.cpu1.data     0.729288                       # miss rate for SwapReq accesses
system.cpu1.dcache.SwapReq_miss_rate::total     0.729288                       # miss rate for SwapReq accesses
system.cpu1.dcache.SwapReq_avg_miss_latency::.cpu1.data  4838.400000                       # average SwapReq miss latency
system.cpu1.dcache.SwapReq_avg_miss_latency::total  4838.400000                       # average SwapReq miss latency
system.cpu1.dcache.SwapReq_mshr_misses::.cpu1.data          625                       # number of SwapReq MSHR misses
system.cpu1.dcache.SwapReq_mshr_misses::total          625                       # number of SwapReq MSHR misses
system.cpu1.dcache.SwapReq_mshr_miss_latency::.cpu1.data      2399000                       # number of SwapReq MSHR miss cycles
system.cpu1.dcache.SwapReq_mshr_miss_latency::total      2399000                       # number of SwapReq MSHR miss cycles
system.cpu1.dcache.SwapReq_mshr_miss_rate::.cpu1.data     0.729288                       # mshr miss rate for SwapReq accesses
system.cpu1.dcache.SwapReq_mshr_miss_rate::total     0.729288                       # mshr miss rate for SwapReq accesses
system.cpu1.dcache.SwapReq_avg_mshr_miss_latency::.cpu1.data  3838.400000                       # average SwapReq mshr miss latency
system.cpu1.dcache.SwapReq_avg_mshr_miss_latency::total  3838.400000                       # average SwapReq mshr miss latency
system.cpu1.dcache.tags.pwrStateResidencyTicks::UNDEFINED 537735959000                       # Cumulative time (in ticks) in various power states
system.cpu1.dcache.tags.tagsinuse           31.954688                       # Cycle average of tags in use
system.cpu1.dcache.tags.total_refs           53123179                       # Total number of references to valid blocks.
system.cpu1.dcache.tags.sampled_refs         14403283                       # Sample count of references to valid blocks.
system.cpu1.dcache.tags.avg_refs             3.688269                       # Average number of references to valid blocks.
system.cpu1.dcache.tags.warmup_cycle                0                       # Cycle when the warmup percentage was hit.
system.cpu1.dcache.tags.occ_blocks::.cpu1.data    31.954688                       # Average occupied blocks per requestor
system.cpu1.dcache.tags.occ_percent::.cpu1.data     0.998584                       # Average percentage of cache occupancy
system.cpu1.dcache.tags.occ_percent::total     0.998584                       # Average percentage of cache occupancy
system.cpu1.dcache.tags.occ_task_id_blocks::1024           27                       # Occupied blocks per task id
system.cpu1.dcache.tags.age_task_id_blocks_1024::1           27                       # Occupied blocks per task id
system.cpu1.dcache.tags.occ_task_id_percent::1024     0.843750                       # Percentage of cache occupancy per task id
system.cpu1.dcache.tags.tag_accesses        133014556                       # Number of tag accesses
system.cpu1.dcache.tags.data_accesses       133014556                       # Number of data accesses
system.cpu_clk_domain.clock                       500                       # Clock period in ticks
system.tol2bus.pwrStateResidencyTicks::UNDEFINED 537735959000                       # Cumulative time (in ticks) in various power states
system.tol2bus.trans_dist::ReadResp          48646977                       # Transaction distribution
system.tol2bus.trans_dist::ReadRespWithInvalidate            2                       # Transaction distribution
system.tol2bus.trans_dist::WritebackDirty      1713220                       # Transaction distribution
system.tol2bus.trans_dist::WritebackClean     47767274                       # Transaction distribution
system.tol2bus.trans_dist::CleanEvict        79342653                       # Transaction distribution
system.tol2bus.trans_dist::UpgradeReq           26892                       # Transaction distribution
system.tol2bus.trans_dist::SCUpgradeReq          1779                       # Transaction distribution
system.tol2bus.trans_dist::UpgradeResp          28671                       # Transaction distribution
system.tol2bus.trans_dist::SCUpgradeFailReq          153                       # Transaction distribution
system.tol2bus.trans_dist::UpgradeFailResp          153                       # Transaction distribution
system.tol2bus.trans_dist::ReadExReq            65590                       # Transaction distribution
system.tol2bus.trans_dist::ReadExResp           65590                       # Transaction distribution
system.tol2bus.trans_dist::ReadCleanReq         30964                       # Transaction distribution
system.tol2bus.trans_dist::ReadSharedReq     48616016                       # Transaction distribution
system.tol2bus.pkt_count_system.cpu0.icache.mem_side::system.l2.cpu_side        55096                       # Packet count per connected master and slave (bytes)
system.tol2bus.pkt_count_system.cpu0.dcache.mem_side::system.l2.cpu_side     59833970                       # Packet count per connected master and slave (bytes)
system.tol2bus.pkt_count_system.cpu1.icache.mem_side::system.l2.cpu_side        12948                       # Packet count per connected master and slave (bytes)
system.tol2bus.pkt_count_system.cpu1.dcache.mem_side::system.l2.cpu_side     43203093                       # Packet count per connected master and slave (bytes)
system.tol2bus.pkt_count_system.cpu2.icache.mem_side::system.l2.cpu_side        12087                       # Packet count per connected master and slave (bytes)
system.tol2bus.pkt_count_system.cpu2.dcache.mem_side::system.l2.cpu_side     27671669                       # Packet count per connected master and slave (bytes)
system.tol2bus.pkt_count_system.cpu3.icache.mem_side::system.l2.cpu_side        12759                       # Packet count per connected master and slave (bytes)
system.tol2bus.pkt_count_system.cpu3.dcache.mem_side::system.l2.cpu_side     15318541                       # Packet count per connected master and slave (bytes)
system.tol2bus.pkt_count::total             146120163                       # Packet count per connected master and slave (bytes)
system.tol2bus.pkt_size_system.cpu0.icache.mem_side::system.l2.cpu_side      2350720                       # Cumulative packet size per connected master and slave (bytes)
system.tol2bus.pkt_size_system.cpu0.dcache.mem_side::system.l2.cpu_side   2551917504                       # Cumulative packet size per connected master and slave (bytes)
system.tol2bus.pkt_size_system.cpu1.icache.mem_side::system.l2.cpu_side       552448                       # Cumulative packet size per connected master and slave (bytes)
system.tol2bus.pkt_size_system.cpu1.dcache.mem_side::system.l2.cpu_side   1842427328                       # Cumulative packet size per connected master and slave (bytes)
system.tol2bus.pkt_size_system.cpu2.icache.mem_side::system.l2.cpu_side       515712                       # Cumulative packet size per connected master and slave (bytes)
system.tol2bus.pkt_size_system.cpu2.dcache.mem_side::system.l2.cpu_side   1179773568                       # Cumulative packet size per connected master and slave (bytes)
system.tol2bus.pkt_size_system.cpu3.icache.mem_side::system.l2.cpu_side       544384                       # Cumulative packet size per connected master and slave (bytes)
system.tol2bus.pkt_size_system.cpu3.dcache.mem_side::system.l2.cpu_side    652816512                       # Cumulative packet size per connected master and slave (bytes)
system.tol2bus.pkt_size::total             6230898176                       # Cumulative packet size per connected master and slave (bytes)
system.tol2bus.snoops                        80185771                       # Total snoops (count)
system.tol2bus.snoopTraffic                  53467648                       # Total snoop traffic (bytes)
system.tol2bus.snoop_fanout::samples        128878905                       # Request fanout histogram
system.tol2bus.snoop_fanout::mean            0.337558                       # Request fanout histogram
system.tol2bus.snoop_fanout::stdev           0.536842                       # Request fanout histogram
system.tol2bus.snoop_fanout::underflows             0      0.00%      0.00% # Request fanout histogram
system.tol2bus.snoop_fanout::0               88695814     68.82%     68.82% # Request fanout histogram
system.tol2bus.snoop_fanout::1               37597645     29.17%     97.99% # Request fanout histogram
system.tol2bus.snoop_fanout::2                1955017      1.52%     99.51% # Request fanout histogram
system.tol2bus.snoop_fanout::3                 525323      0.41%     99.92% # Request fanout histogram
system.tol2bus.snoop_fanout::4                 105038      0.08%    100.00% # Request fanout histogram
system.tol2bus.snoop_fanout::5                     68      0.00%    100.00% # Request fanout histogram
system.tol2bus.snoop_fanout::6                      0      0.00%    100.00% # Request fanout histogram
system.tol2bus.snoop_fanout::7                      0      0.00%    100.00% # Request fanout histogram
system.tol2bus.snoop_fanout::8                      0      0.00%    100.00% # Request fanout histogram
system.tol2bus.snoop_fanout::overflows              0      0.00%    100.00% # Request fanout histogram
system.tol2bus.snoop_fanout::min_value              0                       # Request fanout histogram
system.tol2bus.snoop_fanout::max_value              5                       # Request fanout histogram
system.tol2bus.snoop_fanout::total          128878905                       # Request fanout histogram
system.tol2bus.reqLayer0.occupancy        97399246848                       # Layer occupancy (ticks)
system.tol2bus.reqLayer0.utilization             18.1                       # Layer utilization (%)
system.tol2bus.respLayer5.occupancy       13877737198                       # Layer occupancy (ticks)
system.tol2bus.respLayer5.utilization             2.6                       # Layer utilization (%)
system.tol2bus.respLayer4.occupancy           6315361                       # Layer occupancy (ticks)
system.tol2bus.respLayer4.utilization             0.0                       # Layer utilization (%)
system.tol2bus.respLayer7.occupancy        7687135216                       # Layer occupancy (ticks)
system.tol2bus.respLayer7.utilization             1.4                       # Layer utilization (%)
system.tol2bus.respLayer6.occupancy           6569037                       # Layer occupancy (ticks)
system.tol2bus.respLayer6.utilization             0.0                       # Layer utilization (%)
system.tol2bus.respLayer1.occupancy       29959365612                       # Layer occupancy (ticks)
system.tol2bus.respLayer1.utilization             5.6                       # Layer utilization (%)
system.tol2bus.respLayer0.occupancy          27581918                       # Layer occupancy (ticks)
system.tol2bus.respLayer0.utilization             0.0                       # Layer utilization (%)
system.tol2bus.respLayer3.occupancy       21649818745                       # Layer occupancy (ticks)
system.tol2bus.respLayer3.utilization             4.0                       # Layer utilization (%)
system.tol2bus.respLayer2.occupancy           6718384                       # Layer occupancy (ticks)
system.tol2bus.respLayer2.utilization             0.0                       # Layer utilization (%)

---------- End Simulation Statistics   ----------
