Redirecting stdout to /vol1/msoyturk/gem5/results/sssp/epinions.el/4kB/output.txt
Redirecting stderr to /vol1/msoyturk/gem5/results/sssp/epinions.el/4kB/error.txt
gem5 Simulator System.  http://gem5.org
gem5 is copyrighted software; use the --copyright option for details.

gem5 compiled Apr 26 2020 13:32:47
gem5 started May  4 2020 02:27:57
gem5 executing on draco, pid 30133
command line: /vol1/msoyturk/gem5/build/RISCV/gem5.fast -re --outdir=/vol1/msoyturk/gem5/results/sssp/epinions.el/4kB --stdout-file=output.txt --stderr-file=error.txt /vol1/msoyturk/gem5/configs/example/my_se.py -c /vol1/msoyturk/gem5/gapbs/sssp -o '-f /vol1/msoyturk/gem5/gapbs/test/graphs/epinions.el' --caches --l1d_size=2kB --l1i_size=2kB --cpu-type=DerivO3CPU -n 4 --mem-size=512MB --l2cache --l2_size=4kB --l1i_mshrs=4 --l1d_mshrs=4 --l2_mshrs=20 --l1i_write_buffers=8 --l1d_write_buffers=8 --l2_write_buffers=8

info: Standard input is not a terminal, disabling listeners.
Global frequency set at 1000000000000 ticks per second
**** REAL SIMULATION ****
Read Time:           0.52999
Build Time:          0.11244
Graph has 75888 nodes and 508837 directed edges for degree: 6
    0          1     0.03177
    8          1     0.06118
   10          1     0.08104
   12          1     0.10959
   14          1     0.04361
   16          3     0.05487
   17          3     0.04282
   18          4     0.20723
   19          5     0.20593
   20          4     0.40142
   21         10     0.36575
   22         13     0.39127
   23         19     0.34579
   24         26     0.30848
   25         31     0.52847
   26         49     0.72412
   27         75     0.45466
   28         64     0.48022
   29         81     0.36613
   30        111     0.59365
   31        105     0.46475
   32        131     0.44249
   33        154     0.59143
   34        182     0.67881
   35        188     0.81799
   36        193     0.58569
   37        231     0.56553
   38        259     0.50238
   39        263     0.47585
   40        258     0.48992
   41        295     0.59248
   42        276     0.31324
   43        327     0.50526
   44        292     0.43936
   45        296     0.32313
   46        324     0.39803
   47        348     0.38458
   48        324     0.33263
   49        322     0.27943
   50        353     0.30793
   51        346     0.29269
   52        324     0.32310
   53        335     0.24241
   54        370     0.38649
   55        364     0.24729
   56        370     0.30470
   57        349     0.21671
   58        362     0.18055
   59        361     0.23154
   60        390     0.19182
   61        332     0.19688
   62        353     0.18526
   63        336     0.17137
   64        346     0.17304
   65        386     0.14214
   66        341     0.15619
   67        327     0.13570
   68        305     0.10581
   69        385     0.15425
   70        308     0.12206
   71        333     0.13440
   72        379     0.14154
   73        370     0.10894
   74        346     0.09845
   75        339     0.11063
   76        347     0.10688
   77        313     0.08148
   78        343     0.12312
   79        319     0.09401
   80        358     0.10110
   81        300     0.09437
   82        335     0.09860
   83        331     0.10095
   84        350     0.10154
   85        310     0.08084
   86        318     0.06287
   87        317     0.07562
   88        316     0.08976
   89        304     0.08321
   90        309     0.06535
   91        291     0.04929
   92        302     0.09152
   93        294     0.08014
   94        319     0.10557
   95        314     0.07652
   96        304     0.07685
   97        325     0.08373
   98        283     0.07527
   99        281     0.07424
  100        312     0.07383
  101        279     0.06614
  102        296     0.06706
  103        283     0.05788
  104        305     0.06934
  105        279     0.07605
  106        290     0.08562
  107        307     0.07485
  108        303     0.08496
  109        285     0.06059
  110        306     0.06276
  111        290     0.05307
  112        285     0.05467
  113        306     0.05988
  114        259     0.05968
  115        296     0.06398
  116        261     0.06315
  117        278     0.05757
  118        278     0.05849
  119        312     0.07669
  120        278     0.05133
  121        260     0.05408
  122        270     0.05110
  123        295     0.05887
  124        282     0.05762
  125        282     0.04879
  126        291     0.07129
  127        263     0.05598
  128        265     0.04622
  129        257     0.06018
  130        285     0.06671
  131        277     0.05736
  132        277     0.05229
  133        261     0.09206
  134        265     0.03980
  135        254     0.04528
  136        224     0.04521
  137        228     0.04267
  138        229     0.03622
  139        261     0.04447
  140        265     0.04978
  141        265     0.04915
  142        249     0.05536
  143        247     0.04501
  144        263     0.05960
  145        275     0.04467
  146        248     0.05633
  147        268     0.05640
  148        248     0.06148
  149        276     0.04463
  150        253     0.05189
  151        275     0.04734
  152        259     0.03997
  153        245     0.04474
  154        239     0.04659
  155        249     0.03958
  156        229     0.04088
  157        237     0.04297
  158        258     0.03934
  159        218     0.03292
  160        260     0.04011
  161        223     0.03497
  162        228     0.03556
  163        270     0.03615
  164        256     0.05147
  165        237     0.04923
  166        274     0.04917
  167        240     0.04073
  168        249     0.04065
  169        233     0.03470
  170        217     0.03472
  171        234     0.05297
  172        262     0.04244
  173        212     0.03597
  174        245     0.03625
  175        255     0.03878
  176        194     0.03499
  177        255     0.03751
  178        231     0.04881
  179        215     0.03213
  180        260     0.03530
  181        256     0.03182
  182        243     0.04546
  183        226     0.04971
  184        239     0.04686
  185        214     0.03083
  186        225     0.02884
  187        237     0.03835
  188        229     0.04325
  189        227     0.03578
  190        224     0.03038
  191        220     0.03021
  192        231     0.03913
  193        230     0.03820
  194        220     0.03546
  195        207     0.03743
  196        200     0.05028
  197        230     0.03296
  198        212     0.03271
  199        210     0.04040
  200        218     0.03251
  201        203     0.04003
  202        228     0.03485
  203        224     0.03173
  204        202     0.02841
  205        233     0.03544
  206        217     0.04066
  207        231     0.03456
  208        224     0.03207
  209        221     0.03338
  210        214     0.03222
  211        206     0.02998
  212        210     0.03218
  213        228     0.03494
  214        175     0.02198
  215        197     0.04210
  216        204     0.03829
  217        196     0.03255
  218        247     0.03425
  219        190     0.03531
  220        206     0.03164
  221        205     0.03032
  222        208     0.03275
  223        204     0.03496
  224        191     0.02798
  225        209     0.03947
  226        215     0.04176
  227        231     0.03371
  228        203     0.03256
  229        207     0.03818
  230        187     0.03401
  231        191     0.03813
  232        197     0.02817
  233        204     0.03511
  234        180     0.02972
  235        216     0.02639
  236        187     0.02593
  237        222     0.04096
  238        211     0.02714
  239        206     0.02766
  240        198     0.03280
  241        187     0.02845
  242        184     0.03001
  243        183     0.03186
  244        189     0.02931
  245        199     0.02550
  246        199     0.02581
  247        221     0.03997
  248        196     0.02851
  249        187     0.02747
  250        179     0.02934
  251        198     0.03135
  252        216     0.02871
  253        193     0.03034
  254        200     0.02866
  255        199     0.02839
  256        195     0.03811
  257        194     0.02879
  258        210     0.03024
  259        212     0.03382
  260        209     0.03123
  261        169     0.02613
  262        206     0.02902
  263        191     0.03473
  264        190     0.02342
  265        193     0.03314
  266        191     0.03463
  267        211     0.03074
  268        199     0.03280
  269        173     0.03060
  270        201     0.03129
  271        190     0.02804
  272        185     0.02744
  273        193     0.02879
  274        183     0.03619
  275        190     0.03528
  276        180     0.03104
  277        181     0.02404
  278        172     0.02507
  279        178     0.03125
  280        183     0.02655
  281        175     0.03185
  282        153     0.02646
  283        153     0.02623
  284        155     0.02656
  285        171     0.03145
  286        165     0.03348
  287        163     0.02690
  288        175     0.03404
  289        130     0.02585
  290        153     0.02884
  291        119     0.02461
  292        137     0.02919
  293        128     0.02433
  294        115     0.01797
  295        104     0.02008
  296        105     0.03251
  297        100     0.02061
  298         92     0.02050
  299        110     0.02117
  300         78     0.02250
  301         92     0.01983
  302         90     0.02048
  303         96     0.02217
  304         75     0.01524
  305         93     0.01497
  306         73     0.02426
  307         84     0.01682
  308         80     0.01779
  309         79     0.02103
  310         66     0.01904
  311         70     0.02183
  312         70     0.04057
  313         62     0.02590
  314         65     0.02374
  315         62     0.02201
  316         59     0.02698
  317         52     0.01699
  318         54     0.02247
  319         56     0.01830
  320         50     0.02068
  321         55     0.01861
  322         49     0.02126
  323         59     0.02402
  324         46     0.01327
  325         58     0.02006
  326         45     0.01589
  327         55     0.02592
  328         40     0.01959
  329         44     0.02252
  330         43     0.01946
  331         50     0.01747
  332         40     0.02140
  333         42     0.01486
  334         41     0.01179
  335         35     0.02074
  336         41     0.01955
  337         44     0.01425
  338         34     0.01594
  339         42     0.02530
  340         41     0.01606
  341         46     0.01565
  342         44     0.01252
  343         34     0.01256
  344         55     0.01761
  345         48     0.01790
  346         39     0.01567
  347         32     0.01714
  348         28     0.02088
  349         34     0.01593
  350         39     0.01646
  351         31     0.01074
  352         31     0.01329
  353         31     0.02158
  354         31     0.01410
  355         39     0.01856
  356         32     0.01624
  357         27     0.01354
  358         27     0.01588
  359         41     0.01779
  360         34     0.01608
  361         28     0.01011
  362         25     0.01686
  363         29     0.01043
  364         21     0.01031
  365         32     0.01471
  366         26     0.01106
  367         24     0.01495
  368         28     0.01335
  369         21     0.01255
  370         33     0.01306
  371         31     0.01882
  372         15     0.01165
  373         22     0.01724
  374         21     0.01182
  375         22     0.01548
  376         19     0.01841
  377         34     0.01566
  378         19     0.01112
  379         22     0.01171
  380         21     0.01451
  381         28     0.01476
  382         26     0.00930
  383         21     0.01169
  384         36     0.01976
  385         20     0.01487
  386         31     0.01450
  387         26     0.01460
  388         25     0.02714
  389         18     0.01185
  390         17     0.01218
  391         15     0.00872
  392         20     0.01638
  393         16     0.01338
  394         21     0.00959
  395         24     0.01521
  396         17     0.01343
  397         23     0.01524
  398         23     0.01206
  399         22     0.01317
  400         20     0.01827
  401         23     0.01496
  402         23     0.01226
  403         19     0.01583
  404         13     0.00855
  405         24     0.01240
  406         13     0.01430
  407         13     0.01116
  408         15     0.01323
  409         12     0.00832
  410         14     0.01078
  411         13     0.01306
  412         22     0.01275
  413         14     0.00978
  414         17     0.01108
  415         15     0.01359
  416         18     0.00942
  417         15     0.00840
  418         12     0.01647
  419         21     0.01394
  420         22     0.00903
  421          9     0.00791
  422         15     0.01299
  423         15     0.01214
  424         16     0.01521
  425         17     0.01139
  426         23     0.01189
  427         15     0.00847
  428         23     0.01275
  429         10     0.00889
  430         26     0.01040
  431          8     0.00715
  432         12     0.01360
  433         15     0.01127
  434         19     0.01718
  435         13     0.01105
  436         13     0.01278
  437          8     0.00760
  438         17     0.01126
  439          6     0.01410
  440         10     0.01325
  441         18     0.00958
  442         15     0.01432
  443         10     0.00797
  444         19     0.01252
  445         15     0.00831
  446         10     0.00753
  447         15     0.00912
  448         12     0.01521
  449         14     0.01250
  450         16     0.01156
  451         12     0.01044
  452         12     0.00788
  453          8     0.00749
  454         10     0.00727
  455          9     0.00693
  456          9     0.01098
  457         13     0.00776
  458          8     0.00715
  459          6     0.01175
  460         15     0.00868
  461         17     0.01189
  462          9     0.01620
  463         11     0.00827
  464          8     0.00718
  465         14     0.00942
  466         10     0.00777
  467          5     0.00634
  468         11     0.00774
  469         13     0.01100
  470         14     0.01384
  471          8     0.01158
  472         11     0.00779
  473          6     0.00679
  474          9     0.01235
  475         10     0.01370
  476          9     0.00799
  477          6     0.01195
  478         11     0.00763
  479          9     0.00979
  480          6     0.01026
  481          3     0.00599
  482         12     0.01242
  483         10     0.01144
  484          5     0.00626
  485          7     0.00714
  486          4     0.00985
  487          2     0.00957
  488          5     0.01875
  489          7     0.00734
  490         10     0.00732
  491          4     0.00637
  492          7     0.01617
  493          8     0.00730
  494          8     0.00711
  495          3     0.01033
  496          9     0.01285
  497          6     0.00857
  498         11     0.00790
  499          2     0.00585
  500          3     0.00566
  501          4     0.00590
  502          7     0.00737
  503          8     0.00760
  504          2     0.01045
  505          6     0.00647
  506          9     0.00882
  507         10     0.00755
  508         10     0.00778
  509          6     0.00684
  510          5     0.00663
  511          5     0.00670
  512          6     0.00729
  513          4     0.00670
  514          3     0.00617
  515          9     0.00703
  516          2     0.00939
  517          6     0.00671
  518          5     0.01013
  519          1     0.00572
  520          2     0.00625
  521          7     0.01109
  522          6     0.00684
  523          6     0.00624
  524          2     0.00585
  525          4     0.00613
  526          3     0.00895
  527          2     0.00574
  528          5     0.01052
  529          3     0.00559
  530          4     0.01193
  531          3     0.00625
  532          6     0.00620
  533          6     0.00639
  534          2     0.00588
  535          4     0.00620
  536          3     0.00586
  537          3     0.00911
  538          3     0.00573
  539          2     0.00942
  540          7     0.00688
  541          3     0.00558
  542          5     0.00669
  543          4     0.01468
  544          4     0.00633
  546          4     0.00954
  547          3     0.00660
  548          7     0.00995
  549          3     0.00606
  550          3     0.00633
  551          3     0.00595
  552          3     0.00930
  553          2     0.00887
  555          2     0.00567
  556          1     0.00537
  557          1     0.00632
  558          6     0.00686
  559          3     0.00666
  560          2     0.00546
  561          4     0.00611
  562          2     0.00587
  563          4     0.00985
  564          4     0.00572
  565          1     0.00578
  566          2     0.00556
  567          1     0.00556
  568          1     0.00553
  569          2     0.00636
  570          4     0.00601
  571          1     0.00521
  572          1     0.00970
  573          1     0.01064
  574          2     0.00596
  576          2     0.00733
  577          2     0.00564
  578          3     0.00542
  579          1     0.00562
  580          4     0.00699
  581          1     0.00596
  582          5     0.00661
  584          3     0.01127
  585          2     0.00579
  586          2     0.00736
  587          1     0.00574
  588          1     0.00566
  589          2     0.00633
  590          2     0.00626
  591          2     0.00576
  592          2     0.00571
  593          3     0.00613
  595          1     0.00616
  596          4     0.00609
  599          1     0.00549
  600          2     0.00546
  601          2     0.00529
  602          3     0.00519
  604          2     0.00580
  605          3     0.00908
  606          1     0.00537
  607          2     0.00546
  608          1     0.00558
  610          1     0.00543
  611          4     0.00933
  612          2     0.00558
  613          1     0.00503
  614          2     0.00561
  616          1     0.00588
  619          1     0.00527
  620          2     0.01622
  622          4     0.01027
  623          3     0.00591
  624          2     0.00593
  625          4     0.00942
  627          1     0.00546
  628          1     0.00545
  631          1     0.00544
  632          1     0.00547
  634          1     0.00553
  635          1     0.00564
  636          3     0.01170
  637          3     0.00586
  639          3     0.00595
  640          2     0.00529
  641          1     0.00520
  643          1     0.00527
  644          1     0.00916
  646          1     0.00572
  647          1     0.00555
  648          1     0.00541
  649          2     0.00871
  650          3     0.00568
  652          2     0.00543
  653          2     0.00544
  654          1     0.00555
  655          2     0.01011
  656          1     0.00883
  657          1     0.00551
  658          1     0.00523
  659          1     0.00538
  660          1     0.00508
  661          2     0.00542
  666          1     0.00532
  667          1     0.00563
  668          1     0.00553
  672          1     0.00536
  676          1     0.00536
  679          1     0.00558
  682          1     0.00545
  684          2     0.00548
  685          1     0.00523
  686          1     0.00569
  690          1     0.00531
  691          1     0.00511
  693          1     0.00521
  695          1     0.00527
  696          1     0.00889
  697          1     0.00580
  698          1     0.00558
  700          1     0.00534
  702          1     0.00549
  705          1     0.00519
  706          1     0.00509
  707          2     0.00997
  708          1     0.00560
  715          2     0.00498
  718          1     0.00508
  721          1     0.00525
  724          1     0.00529
  731          1     0.00539
  735          1     0.00527
  737          2     0.00592
  738          1     0.00521
  739          1     0.00570
  762          1     0.00539
  766          1     0.00535
  777          1     0.01004
  780          1     0.01018
  782          1     0.00498
  786          1     0.00548
  788          1     0.00531
  790          1     0.00866
  791          1     0.00574
  796          1     0.00524
  797          1     0.00519
  806          1     0.00532
  821          1     0.00566
  825          1     0.00551
  837          2     0.00599
  843          1     0.00540
  844          1     0.00564
  851          1     0.00525
  872          1     0.00523
  873          1     0.00528
  880          1     0.01248
  883          1     0.00597
  889          1     0.00530
  890          1     0.00548
  902          1     0.00571
  931          1     0.00707
 1072          1     0.00499
took 689 iterations
Trial Time:          0.04744
    0          1     0.01645
  155          1     0.04041
  182          1     0.01494
  186          1     0.01187
  193          1     0.01600
  206          1     0.02776
  212          1     0.07169
  213          1     0.01097
  219          1     0.00543
  222          1     0.00548
  223          1     0.00577
  229          1     0.01234
  231          1     0.03836
  232          2     0.09347
  233          4     0.07424
  234          5     0.10670
  235          5     0.10493
  236          5     0.15433
  237          7     0.41246
  238          3     0.11589
  239         12     0.40580
  240          8     0.18649
  241         17     0.49178
  242         20     0.25937
  243         19     0.27914
  244         34     0.35293
  245         45     0.51874
  246         61     0.55182
  247         68     0.60530
  248         97     0.44786
  249        112     0.53284
  250        128     0.86594
  251        151     0.89099
  252        171     0.45780
  253        169     0.41035
  254        218     0.82462
  255        201     0.66785
  256        236     0.55033
  257        243     0.44960
  258        245     0.44228
  259        298     0.40680
  260        284     0.45391
  261        288     0.42988
  262        310     0.42099
  263        309     0.39425
  264        300     0.35740
  265        330     0.41462
  266        319     0.35304
  267        328     0.30690
  268        346     0.33081
  269        360     0.26941
  270        337     0.23827
  271        371     0.37605
  272        340     0.24624
  273        338     0.24008
  274        365     0.21052
  275        356     0.28446
  276        373     0.20972
  277        372     0.22662
  278        343     0.23639
  279        376     0.25363
  280        406     0.19767
  281        344     0.14921
  282        367     0.15437
  283        387     0.18260
  284        326     0.14511
  285        349     0.15582
  286        338     0.11348
  287        348     0.13145
  288        339     0.12641
  289        321     0.11630
  290        340     0.13224
  291        337     0.11616
  292        338     0.10760
  293        360     0.10519
  294        355     0.11077
  295        332     0.09526
  296        358     0.09895
  297        353     0.10609
  298        334     0.11116
  299        334     0.12100
  300        297     0.08395
  301        323     0.11393
  302        327     0.08538
  303        298     0.08582
  304        331     0.08887
  305        296     0.07081
  306        305     0.07717
  307        332     0.09764
  308        306     0.09609
  309        316     0.08085
  310        297     0.06933
  311        290     0.07397
  312        300     0.07208
  313        323     0.07541
  314        268     0.06211
  315        319     0.07435
  316        291     0.08110
  317        306     0.06856
  318        300     0.07769
  319        289     0.07510
  320        265     0.06923
  321        282     0.07667
  322        314     0.07238
  323        288     0.07143
  324        297     0.07641
  325        320     0.08664
  326        284     0.05455
  327        314     0.06434
  328        307     0.07674
  329        261     0.06443
  330        249     0.06604
  331        284     0.05375
  332        274     0.04617
  333        291     0.06403
  334        276     0.06043
  335        312     0.08006
  336        280     0.07223
  337        287     0.06258
  338        260     0.05377
  339        235     0.05742
  340        290     0.05556
  341        299     0.05136
  342        270     0.05944
  343        270     0.06510
  344        268     0.06460
  345        284     0.06372
  346        254     0.04789
  347        291     0.05225
  348        256     0.05444
  349        258     0.07445
  350        278     0.05053
  351        273     0.04544
  352        261     0.05528
  353        277     0.06107
  354        257     0.03891
  355        264     0.04718
  356        250     0.04746
  357        246     0.05223
  358        265     0.05240
  359        261     0.05020
  360        257     0.04944
  361        255     0.06081
  362        254     0.03366
  363        247     0.04593
  364        211     0.04570
  365        280     0.06674
  366        246     0.05908
  367        245     0.05467
  368        261     0.04556
  369        272     0.05422
  370        287     0.05802
  371        237     0.04131
  372        274     0.03481
  373        253     0.05454
  374        261     0.04313
  375        235     0.05333
  376        242     0.03526
  377        229     0.03066
  378        251     0.04263
  379        227     0.03968
  380        213     0.04321
  381        266     0.04380
  382        247     0.05477
  383        240     0.03856
  384        252     0.04704
  385        231     0.02763
  386        262     0.04750
  387        237     0.03534
  388        235     0.03773
  389        246     0.04348
  390        232     0.03286
  391        241     0.03461
  392        235     0.04207
  393        248     0.03836
  394        237     0.04322
  395        293     0.05289
  396        227     0.05980
  397        240     0.04323
  398        226     0.04235
  399        243     0.03826
  400        236     0.03691
  401        250     0.05661
  402        242     0.03318
  403        223     0.05139
  404        220     0.03218
  405        231     0.03059
  406        230     0.04003
  407        226     0.03320
  408        240     0.05037
  409        214     0.03227
  410        212     0.03260
  411        224     0.03550
  412        221     0.03132
  413        228     0.03706
  414        224     0.04067
  415        198     0.04085
  416        227     0.03788
  417        208     0.03163
  418        212     0.03198
  419        219     0.03332
  420        214     0.03645
  421        216     0.03159
  422        242     0.03662
  423        222     0.03366
  424        231     0.03375
  425        212     0.03221
  426        230     0.03695
  427        202     0.02780
  428        219     0.03919
  429        227     0.03101
  430        193     0.03222
  431        199     0.03137
  432        238     0.03773
  433        222     0.02825
  434        188     0.03266
  435        212     0.03866
  436        203     0.03577
  437        212     0.02886
  438        195     0.03431
  439        227     0.03010
  440        210     0.03392
  441        218     0.03916
  442        191     0.03884
  443        208     0.02793
  444        219     0.03102
  445        196     0.04003
  446        194     0.02832
  447        197     0.03368
  448        229     0.03730
  449        177     0.02805
  450        197     0.03570
  451        213     0.03466
  452        192     0.02795
  453        188     0.03136
  454        198     0.03431
  455        189     0.02610
  456        206     0.03297
  457        195     0.02631
  458        215     0.03338
  459        198     0.03517
  460        216     0.02903
  461        202     0.03647
  462        185     0.02863
  463        186     0.03508
  464        198     0.02463
  465        173     0.03840
  466        195     0.02924
  467        188     0.02975
  468        208     0.02760
  469        204     0.03649
  470        188     0.02439
  471        212     0.03816
  472        195     0.03178
  473        212     0.02275
  474        213     0.03559
  475        185     0.02528
  476        194     0.03332
  477        208     0.03408
  478        172     0.02728
  479        179     0.03491
  480        195     0.03034
  481        219     0.03116
  482        167     0.01960
  483        204     0.03468
  484        181     0.03470
  485        193     0.03330
  486        195     0.02918
  487        205     0.03380
  488        197     0.03111
  489        175     0.02752
  490        196     0.03407
  491        190     0.03836
  492        205     0.03300
  493        172     0.02629
  494        166     0.02029
  495        180     0.02528
  496        180     0.03105
  497        163     0.03700
  498        171     0.04108
  499        187     0.02698
  500        199     0.03118
  501        184     0.02895
  502        153     0.02886
  503        177     0.02781
  504        144     0.02342
  505        150     0.02973
  506        147     0.04714
  507        139     0.02659
  508        125     0.02176
  509        146     0.02596
  510        133     0.02551
  511        133     0.03171
  512        122     0.02200
  513        112     0.02714
  514        116     0.01775
  515        112     0.01797
  516        113     0.02562
  517        104     0.02087
  518         98     0.01773
  519         90     0.02460
  520         87     0.02605
  521         87     0.01957
  522         89     0.01714
  523         92     0.02409
  524         88     0.01508
  525         70     0.02082
  526         76     0.02771
  527         64     0.02203
  528         74     0.01880
  529         73     0.02331
  530         81     0.01719
  531         66     0.01875
  532         64     0.02280
  533         61     0.02969
  534         63     0.02376
  535         58     0.02090
  536         60     0.01920
  537         59     0.02354
  538         44     0.01889
  539         57     0.01664
  540         43     0.02176
  541         53     0.02580
  542         42     0.01190
  543         48     0.02869
  544         52     0.02552
  545         43     0.01594
  546         48     0.01435
  547         33     0.01072
  548         59     0.01933
  549         41     0.02096
  550         46     0.01781
  551         41     0.01585
  552         36     0.02127
  553         41     0.01886
  554         44     0.02277
  555         47     0.01572
  556         48     0.01760
  557         32     0.01210
  558         38     0.01911
  559         47     0.01775
  560         38     0.01723
  561         34     0.01489
  562         46     0.01605
  563         45     0.01253
  564         39     0.02540
  565         38     0.01477
  566         32     0.02049
  567         37     0.01866
  568         33     0.01761
  569         28     0.01038
  570         41     0.01662
  571         25     0.01616
  572         27     0.02141
  573         30     0.01562
  574         29     0.01813
  575         28     0.01246
  576         35     0.02019
  577         25     0.01002
  578         36     0.01669
  579         30     0.01485
  580         30     0.01104
  581         36     0.02203
  582         33     0.01903
  583         43     0.01796
  584         31     0.01335
  585         27     0.01465
  586         22     0.00901
  587         21     0.01480
  588         23     0.01380
  589         23     0.01253
  590         24     0.01031
  591         22     0.01161
  592         29     0.01761
  593         14     0.01046
  594         33     0.01762
  595         21     0.01341
  596         19     0.01300
  597         20     0.01387
  598         19     0.00948
  599         33     0.01452
  600         22     0.01272
  601         26     0.02138
  602         23     0.01699
  603         20     0.00983
  604         20     0.01497
  605         31     0.01289
  606         11     0.01420
  607         29     0.01707
  608         24     0.00999
  609         23     0.01574
  610         20     0.00899
  611         14     0.01649
  612         31     0.01400
  613         17     0.01233
  614         22     0.00992
  615         18     0.01239
  616         20     0.01426
  617         21     0.01253
  618         18     0.01210
  619         19     0.01429
  620         17     0.01478
  621         23     0.01481
  622         19     0.01703
  623         16     0.00858
  624         15     0.01362
  625         19     0.01533
  626         20     0.00916
  627         18     0.01551
  628         16     0.01350
  629         19     0.01408
  630         11     0.01316
  631         13     0.00840
  632         12     0.00893
  633         19     0.01346
  634         17     0.01255
  635         14     0.00867
  636         15     0.01073
  637         21     0.01244
  638         19     0.01440
  639          9     0.00774
  640         16     0.00958
  641         13     0.00810
  642         22     0.01371
  643         18     0.01517
  644         12     0.00795
  645         17     0.01028
  646         23     0.01456
  647         12     0.01276
  648         15     0.00904
  649         16     0.00885
  650         14     0.00822
  651         15     0.01132
  652         15     0.01166
  653         12     0.01300
  654         16     0.00943
  655         14     0.01184
  656         16     0.01402
  657          9     0.01105
  658         14     0.00812
  659          7     0.00698
  660          6     0.00635
  661          9     0.00979
  662         15     0.01325
  663         15     0.01236
  664         19     0.00958
  665         15     0.00830
  666         15     0.00826
  667          5     0.00985
  668         12     0.01142
  669          9     0.01071
  670         11     0.01282
  671         12     0.01058
  672         14     0.01164
  673         15     0.01052
  674         13     0.01106
  675         19     0.00958
  676          6     0.00663
  677          9     0.00724
  678         12     0.01000
  679         13     0.01372
  680         12     0.00933
  681          6     0.00611
  682          4     0.00635
  683         10     0.01483
  684          8     0.00750
  685         11     0.00759
  686         10     0.00783
  687         10     0.00779
  688         11     0.00749
  689         22     0.01455
  690          9     0.01178
  691         12     0.01382
  692          6     0.00855
  693          5     0.00590
  694         17     0.01420
  695          6     0.01129
  696          5     0.00623
  697          8     0.00775
  698          3     0.00561
  699         12     0.01245
  700          3     0.00597
  701          7     0.00733
  702          6     0.01007
  703          9     0.01257
  704          7     0.00858
  705          6     0.00666
  706          7     0.01559
  707          5     0.00667
  708          6     0.01070
  709          7     0.01152
  710          8     0.00892
  711          8     0.00748
  712          7     0.00703
  713          4     0.01775
  714          6     0.00663
  715          6     0.00706
  716          4     0.01284
  717          7     0.00955
  718          4     0.00703
  719         13     0.00982
  720          7     0.00774
  721          8     0.00695
  722          8     0.01056
  723          6     0.00701
  724          8     0.00773
  725          3     0.01032
  726          8     0.00738
  727          3     0.00622
  728          5     0.00630
  729          3     0.00598
  730          3     0.00866
  731          6     0.00691
  732          7     0.00701
  733          5     0.00659
  734          7     0.00711
  735          7     0.00670
  736          7     0.00857
  737          2     0.00553
  738          5     0.00628
  739          4     0.00724
  740          3     0.00585
  741          5     0.00614
  742          3     0.00936
  743          2     0.00627
  744          4     0.00584
  745          2     0.00554
  746          3     0.00600
  747          8     0.01060
  748          2     0.00548
  749          5     0.00632
  750          4     0.00650
  751          3     0.00955
  752          2     0.00587
  753          4     0.00614
  754          1     0.00558
  755          4     0.00589
  756          3     0.00965
  757          4     0.00633
  759          6     0.01025
  760          1     0.00561
  761          6     0.01048
  762          4     0.00612
  763          3     0.00594
  764          2     0.00584
  765          4     0.01133
  766          4     0.00662
  767          5     0.01373
  768          2     0.00582
  769          5     0.00754
  770          2     0.00607
  771          6     0.01237
  772          3     0.00653
  773          3     0.00582
  774          2     0.00573
  775          2     0.00581
  776          4     0.00622
  777          4     0.00622
  779          1     0.00573
  780          4     0.00675
  781          2     0.01128
  782          3     0.00556
  783          2     0.00647
  785          2     0.00951
  786          1     0.00613
  787          2     0.00589
  788          3     0.00626
  790          1     0.00561
  791          2     0.00597
  792          3     0.00825
  794          3     0.01150
  795          3     0.00640
  796          2     0.00633
  797          2     0.00983
  798          1     0.00618
  799          3     0.00620
  800          4     0.01169
  801          3     0.00611
  802          1     0.00599
  803          2     0.00587
  804          1     0.00608
  805          3     0.00595
  806          1     0.00578
  807          3     0.00674
  809          3     0.00605
  810          1     0.00561
  811          3     0.00615
  812          2     0.00579
  813          4     0.00719
  814          2     0.00605
  815          1     0.00946
  816          1     0.00576
  819          2     0.00571
  821          1     0.00577
  822          2     0.00615
  823          3     0.00581
  824          2     0.00535
  826          5     0.01352
  827          1     0.00585
  828          2     0.00573
  829          2     0.00573
  830          2     0.00590
  831          2     0.00948
  833          1     0.00618
  835          1     0.00583
  836          1     0.00667
  839          1     0.00544
  841          3     0.00607
  842          1     0.00632
  843          3     0.00936
  844          2     0.00623
  845          3     0.00913
  846          2     0.01056
  847          1     0.00583
  848          1     0.00619
  849          1     0.00599
  850          5     0.01378
  852          1     0.00817
  853          2     0.00624
  856          1     0.00578
  857          1     0.00614
  858          2     0.00604
  861          1     0.00578
  862          1     0.00559
  864          4     0.00589
  865          1     0.00580
  866          3     0.00951
  870          2     0.00949
  871          3     0.00616
  872          2     0.00574
  873          1     0.00586
  876          2     0.01119
  877          3     0.00622
  879          1     0.00557
  882          3     0.00626
  885          1     0.00606
  887          2     0.00668
  894          1     0.00656
  901          1     0.00644
  902          1     0.00988
  903          2     0.00622
  907          2     0.00620
  909          1     0.00588
  911          1     0.00673
  912          1     0.00599
  913          1     0.00624
  915          1     0.00617
  916          1     0.00568
  917          1     0.00621
  918          1     0.00613
  922          1     0.00574
  924          1     0.00594
  925          1     0.00928
  927          2     0.00582
  935          1     0.00593
  936          1     0.00584
  938          1     0.00604
  942          2     0.00564
  951          1     0.00568
  952          1     0.00560
  953          1     0.00605
  955          1     0.00655
  956          1     0.00628
  957          1     0.00608
  972          1     0.00587
  980          1     0.00634
  995          1     0.01031
  996          1     0.00726
 1005          1     0.00958
 1006          1     0.00559
 1009          1     0.00573
 1011          1     0.00540
 1012          1     0.00573
 1015          1     0.00616
 1018          1     0.00594
 1019          1     0.00634
 1042          1     0.00611
 1043          2     0.00592
 1049          1     0.00543
 1052          1     0.00549
 1058          1     0.00526
 1062          1     0.00621
 1086          2     0.01272
 1089          1     0.00554
 1094          1     0.00562
 1105          1     0.00558
 1112          1     0.00554
 1123          1     0.00560
 1137          1     0.00721
 1278          1     0.00531
took 690 iterations
Trial Time:          0.04779
    0          1     0.05699
    4          2     0.18199
    5          1     0.02144
    7          1     0.08850
    8          5     0.16575
    9          1     0.06123
   11          4     0.21165
   12          4     0.14264
   13          6     0.15260
   14          6     0.33094
   15         13     0.21403
   16          9     0.37877
   17         17     0.32532
   18         22     0.44037
   19         23     0.41842
   20         31     0.47647
   21         41     0.54349
   22         52     1.01694
   23         83     0.59783
   24        105     0.51103
   25        121     0.36768
   26        123     0.37983
   27        182     0.44697
   28        167     0.43519
   29        198     0.67145
   30        228     0.53497
   31        208     0.44715
   32        241     0.53490
   33        233     0.65087
   34        310     0.53525
   35        330     0.70376
   36        282     0.45081
   37        313     0.43734
   38        321     0.45732
   39        317     0.39357
   40        333     0.31852
   41        319     0.48718
   42        356     0.32415
   43        356     0.31138
   44        357     0.29425
   45        341     0.27719
   46        381     0.30215
   47        335     0.25843
   48        358     0.22979
   49        350     0.21806
   50        318     0.19574
   51        339     0.25031
   52        373     0.21363
   53        349     0.17931
   54        362     0.24055
   55        354     0.15654
   56        342     0.22097
   57        364     0.14958
   58        359     0.18623
   59        376     0.17914
   60        335     0.13376
   61        354     0.17350
   62        342     0.12227
   63        369     0.12771
   64        332     0.08547
   65        306     0.11913
   66        342     0.12793
   67        338     0.11647
   68        334     0.09312
   69        334     0.11000
   70        316     0.10101
   71        341     0.09334
   72        295     0.07059
   73        320     0.09217
   74        326     0.08829
   75        335     0.09215
   76        313     0.08774
   77        336     0.09628
   78        314     0.09376
   79        346     0.09505
   80        313     0.07967
   81        319     0.10697
   82        311     0.08847
   83        308     0.07420
   84        286     0.07147
   85        318     0.08325
   86        314     0.07761
   87        292     0.06824
   88        313     0.07993
   89        276     0.08955
   90        286     0.07129
   91        317     0.08656
   92        290     0.06517
   93        290     0.07380
   94        313     0.10126
   95        306     0.08455
   96        274     0.07172
   97        319     0.06492
   98        291     0.07620
   99        301     0.06129
  100        281     0.06081
  101        297     0.06002
  102        281     0.07564
  103        278     0.05475
  104        305     0.06445
  105        266     0.05863
  106        283     0.04345
  107        292     0.08086
  108        290     0.07550
  109        266     0.05400
  110        300     0.05581
  111        300     0.06292
  112        269     0.04970
  113        292     0.05569
  114        316     0.06265
  115        301     0.06507
  116        274     0.04163
  117        290     0.05960
  118        290     0.05544
  119        269     0.05540
  120        271     0.05380
  121        269     0.07078
  122        258     0.04592
  123        259     0.05626
  124        280     0.03907
  125        243     0.04661
  126        298     0.05025
  127        259     0.05334
  128        251     0.04946
  129        259     0.05996
  130        259     0.04970
  131        279     0.04028
  132        243     0.04980
  133        246     0.04489
  134        260     0.07767
  135        250     0.04910
  136        265     0.06001
  137        235     0.04324
  138        223     0.03694
  139        239     0.06037
  140        272     0.05289
  141        260     0.04073
  142        253     0.03947
  143        233     0.05073
  144        279     0.04094
  145        262     0.04853
  146        222     0.05451
  147        251     0.05903
  148        257     0.04538
  149        261     0.04231
  150        247     0.07445
  151        224     0.03963
  152        267     0.04364
  153        225     0.02792
  154        233     0.03903
  155        262     0.04537
  156        242     0.04899
  157        245     0.04236
  158        228     0.03591
  159        261     0.04127
  160        251     0.03663
  161        240     0.03433
  162        250     0.04075
  163        248     0.04566
  164        227     0.03944
  165        239     0.03398
  166        233     0.03596
  167        221     0.03809
  168        243     0.03911
  169        223     0.04514
  170        252     0.04777
  171        230     0.04414
  172        210     0.03047
  173        258     0.04649
  174        242     0.04127
  175        236     0.03805
  176        247     0.04456
  177        264     0.03603
  178        236     0.03519
  179        252     0.04353
  180        241     0.04925
  181        232     0.04726
  182        216     0.03266
  183        222     0.03923
  184        219     0.03329
  185        221     0.03311
  186        237     0.03237
  187        242     0.03526
  188        223     0.03001
  189        200     0.03081
  190        236     0.03562
  191        233     0.04154
  192        223     0.03700
  193        187     0.03713
  194        179     0.04904
  195        213     0.04355
  196        207     0.02864
  197        211     0.04297
  198        234     0.02684
  199        212     0.02760
  200        212     0.04044
  201        226     0.03739
  202        217     0.03773
  203        234     0.04047
  204        189     0.04022
  205        217     0.03723
  206        208     0.03070
  207        205     0.02970
  208        207     0.02793
  209        207     0.03246
  210        224     0.03237
  211        202     0.03032
  212        203     0.03297
  213        216     0.03067
  214        209     0.02974
  215        199     0.03227
  216        199     0.02659
  217        196     0.03895
  218        207     0.04375
  219        188     0.03370
  220        239     0.03911
  221        231     0.02965
  222        196     0.03318
  223        175     0.03460
  224        195     0.03513
  225        196     0.03682
  226        168     0.03296
  227        214     0.03723
  228        204     0.03905
  229        211     0.02575
  230        212     0.02840
  231        193     0.02960
  232        195     0.03092
  233        197     0.03167
  234        226     0.03488
  235        194     0.03417
  236        212     0.02728
  237        221     0.03200
  238        199     0.02853
  239        179     0.03078
  240        182     0.03277
  241        179     0.02937
  242        181     0.02552
  243        186     0.03800
  244        197     0.02232
  245        171     0.03095
  246        221     0.02817
  247        188     0.03577
  248        179     0.03389
  249        202     0.02681
  250        193     0.02857
  251        221     0.04503
  252        209     0.03467
  253        200     0.02386
  254        215     0.03143
  255        187     0.03347
  256        186     0.02474
  257        198     0.03837
  258        203     0.03704
  259        215     0.03653
  260        192     0.02843
  261        182     0.04832
  262        185     0.03260
  263        197     0.03313
  264        177     0.02743
  265        181     0.02502
  266        210     0.04698
  267        163     0.03004
  268        194     0.02635
  269        190     0.02642
  270        173     0.03312
  271        210     0.03008
  272        187     0.02803
  273        185     0.03149
  274        178     0.02203
  275        164     0.02982
  276        159     0.03443
  277        166     0.02886
  278        149     0.02797
  279        166     0.03042
  280        133     0.02193
  281        152     0.02135
  282        168     0.03066
  283        166     0.03852
  284        151     0.02427
  285        132     0.03133
  286        122     0.02094
  287        133     0.01793
  288        127     0.02869
  289        106     0.02046
  290        111     0.02800
  291         98     0.02241
  292         90     0.02480
  293         99     0.02652
  294        115     0.03061
  295        108     0.02219
  296         86     0.02165
  297         77     0.01824
  298         74     0.01445
  299         87     0.01930
  300         82     0.02092
  301         76     0.01685
  302         72     0.02415
  303         77     0.01490
  304         71     0.01797
  305         56     0.02050
  306         66     0.01684
  307         70     0.01839
  308         55     0.02163
  309         63     0.01981
  310         63     0.01800
  311         79     0.02482
  312         58     0.02590
  313         46     0.02682
  314         64     0.02754
  315         45     0.01873
  316         56     0.01835
  317         42     0.01964
  318         44     0.01298
  319         45     0.02094
  320         41     0.01584
  321         39     0.01717
  322         33     0.01634
  323         51     0.02364
  324         51     0.01436
  325         47     0.02072
  326         44     0.01694
  327         50     0.01762
  328         50     0.02029
  329         38     0.01869
  330         38     0.01435
  331         39     0.01518
  332         37     0.01354
  333         45     0.01842
  334         39     0.01916
  335         45     0.02573
  336         33     0.02031
  337         46     0.01730
  338         43     0.01623
  339         37     0.02236
  340         42     0.01881
  341         40     0.01549
  342         44     0.01412
  343         27     0.01741
  344         25     0.00952
  345         38     0.01537
  346         30     0.01229
  347         40     0.02343
  348         29     0.00992
  349         21     0.01240
  350         39     0.01969
  351         31     0.01644
  352         27     0.01225
  353         21     0.01657
  354         35     0.02533
  355         35     0.01348
  356         32     0.01206
  357         23     0.00926
  358         27     0.01458
  359         32     0.01800
  360         32     0.01419
  361         31     0.01384
  362         22     0.01056
  363         27     0.01383
  364         23     0.01079
  365         28     0.01458
  366         19     0.01647
  367         36     0.01612
  368         29     0.01728
  369         27     0.01061
  370         19     0.01260
  371         16     0.00899
  372         20     0.01070
  373         19     0.01564
  374         20     0.01580
  375         23     0.01725
  376         18     0.01184
  377         27     0.01144
  378         30     0.01425
  379         22     0.00974
  380         17     0.02013
  381         33     0.01701
  382         30     0.02282
  383         30     0.01640
  384         24     0.01819
  385         18     0.01206
  386         16     0.00859
  387         28     0.00980
  388         17     0.01290
  389         22     0.01607
  390         20     0.01347
  391         12     0.00819
  392         19     0.01445
  393         20     0.01448
  394         26     0.01550
  395         12     0.01455
  396         11     0.01122
  397         18     0.00917
  398         21     0.01218
  399         21     0.01759
  400         17     0.01389
  401         13     0.01349
  402         14     0.00944
  403         21     0.01610
  404         16     0.01047
  405         19     0.01490
  406         10     0.00750
  407         18     0.01010
  408         13     0.00861
  409         13     0.01317
  410         14     0.01298
  411         22     0.01432
  412         17     0.01354
  413         15     0.01485
  414         22     0.01091
  415         15     0.01484
  416         18     0.00955
  417         19     0.00864
  418         14     0.01447
  419         19     0.01365
  420         10     0.00696
  421         16     0.00837
  422         11     0.00709
  423         13     0.00806
  424         25     0.01510
  425         15     0.01244
  426         17     0.01644
  427         17     0.01326
  428         11     0.01090
  429         14     0.01314
  430         11     0.01409
  431         17     0.00851
  432         14     0.00826
  433         15     0.01126
  434         17     0.01125
  435         13     0.00985
  436         20     0.01963
  437          4     0.00590
  438          9     0.01154
  439         15     0.01580
  440         12     0.01179
  441          7     0.00731
  442         13     0.01330
  443         15     0.00828
  444          7     0.00681
  445         15     0.01087
  446         12     0.00775
  447         12     0.01037
  448         15     0.01104
  449          9     0.00956
  450         14     0.00823
  451          9     0.01313
  452         13     0.01098
  453          9     0.00722
  454          9     0.00980
  455          6     0.00641
  456         12     0.01025
  457         11     0.01399
  458         18     0.01000
  459         11     0.00758
  460         14     0.00847
  461          8     0.00695
  462         13     0.01035
  463          8     0.01732
  464          9     0.00747
  465         13     0.00997
  466          7     0.00658
  467          5     0.01037
  468          9     0.00879
  469          6     0.01093
  470         10     0.00727
  471          6     0.00668
  472         15     0.01485
  473          7     0.00903
  474         14     0.01503
  475          7     0.00705
  476          9     0.00728
  477          3     0.00605
  478          5     0.00589
  479          6     0.01145
  480          7     0.00718
  481          6     0.01040
  482          4     0.00619
  483          2     0.01019
  484          7     0.01082
  485          7     0.01412
  486          8     0.00751
  487          9     0.00760
  488          6     0.00636
  489          7     0.00709
  490          4     0.00634
  491         12     0.01357
  492          4     0.01105
  493          5     0.00626
  494          7     0.01038
  495          7     0.00729
  496          7     0.01545
  497          7     0.00681
  498          7     0.00681
  499          6     0.00697
  500          7     0.00994
  501          8     0.00852
  502          3     0.00591
  503          7     0.00672
  504          7     0.00673
  505          7     0.00637
  506          2     0.00583
  507          4     0.00602
  508          5     0.01129
  509          5     0.00644
  510          2     0.00584
  511          4     0.00596
  512          4     0.00616
  513          7     0.00691
  514          4     0.00819
  515          6     0.00682
  516          4     0.00624
  517          5     0.01016
  518          2     0.00602
  519          1     0.00570
  520          2     0.00573
  521          7     0.00992
  522          4     0.00604
  523          7     0.00959
  524          2     0.00556
  525          6     0.00684
  527          2     0.00605
  528          5     0.01185
  529          2     0.00580
  530          5     0.00600
  531          6     0.00781
  532          6     0.01198
  533          3     0.00600
  534          4     0.00611
  535          3     0.00729
  536          4     0.00651
  537          2     0.00553
  538          3     0.01380
  539          3     0.00693
  540          6     0.00793
  541          2     0.00594
  542          5     0.00988
  543          4     0.00646
  544          2     0.00741
  545          4     0.01094
  546          4     0.00662
  547          2     0.00585
  548          2     0.00567
  549          2     0.00559
  550          3     0.00577
  551          4     0.00634
  553          3     0.00617
  554          4     0.00671
  556          2     0.00966
  558          3     0.00600
  559          5     0.01158
  560          3     0.00594
  561          4     0.00942
  562          1     0.00561
  563          1     0.00547
  564          2     0.00563
  565          1     0.00976
  566          5     0.00679
  567          1     0.00552
  568          1     0.01000
  569          1     0.00544
  570          1     0.00545
  571          1     0.00545
  572          1     0.00567
  573          2     0.00705
  574          1     0.00607
  575          1     0.00565
  576          1     0.00537
  577          2     0.00556
  578          3     0.01061
  579          3     0.00886
  580          1     0.00571
  582          2     0.00620
  583          4     0.00615
  584          2     0.00532
  585          1     0.00551
  586          4     0.00648
  587          1     0.00567
  588          2     0.00558
  590          2     0.00599
  591          1     0.00583
  594          3     0.00553
  595          3     0.00583
  596          1     0.00533
  597          3     0.00593
  598          1     0.00573
  599          1     0.00554
  600          4     0.00778
  601          2     0.00577
  602          4     0.00638
  604          1     0.00572
  606          2     0.00588
  607          3     0.00616
  609          4     0.01975
  610          1     0.00859
  612          1     0.00543
  614          1     0.00593
  616          1     0.00560
  617          3     0.00624
  619          3     0.00632
  621          3     0.00634
  623          2     0.00546
  624          1     0.00673
  625          1     0.00558
  626          2     0.01079
  628          1     0.00666
  629          2     0.00568
  630          2     0.00709
  631          2     0.01027
  632          2     0.00704
  633          1     0.00614
  636          2     0.01018
  637          3     0.01096
  638          1     0.00653
  639          2     0.00616
  641          3     0.00609
  642          1     0.00664
  644          2     0.00948
  647          1     0.00602
  648          3     0.01007
  649          2     0.00671
  650          1     0.00598
  652          3     0.00648
  655          1     0.01033
  656          2     0.00617
  661          1     0.00595
  662          1     0.00574
  663          1     0.00565
  665          1     0.00581
  667          2     0.00627
  673          1     0.00620
  677          1     0.00575
  679          2     0.00563
  680          1     0.00553
  681          1     0.00592
  684          1     0.00595
  685          1     0.00985
  690          1     0.00583
  691          1     0.00561
  694          1     0.00572
  695          1     0.00615
  696          1     0.00879
  697          1     0.00640
  698          1     0.00596
  699          2     0.00570
  700          1     0.00636
  703          1     0.00586
  705          1     0.00586
  713          1     0.00630
  717          1     0.00595
  718          1     0.00602
  719          1     0.00549
  721          1     0.00549
  725          1     0.00617
  726          1     0.00548
  727          1     0.00613
  732          1     0.00592
  735          1     0.00610
  739          1     0.00608
  755          1     0.00558
  758          1     0.00581
  766          1     0.00906
  776          1     0.00923
  777          1     0.00559
  779          1     0.00872
  782          1     0.00591
  785          1     0.00564
  786          1     0.00578
  792          1     0.00600
  793          1     0.00622
  795          1     0.00587
  814          1     0.00562
  825          1     0.00553
  826          1     0.00572
  832          1     0.00556
  833          1     0.00578
  836          1     0.00603
  846          1     0.00620
  869          1     0.03646
  872          2     0.00629
  873          1     0.00614
  883          1     0.00617
  884          1     0.00600
  902          1     0.00579
  920          1     0.00693
 1061          1     0.00508
took 686 iterations
Trial Time:          0.04734
    0          1     0.03425
    1          1     0.09971
    3          1     0.07512
    4          1     0.00550
    6          1     0.02093
    7          1     0.04830
    8          1     0.01408
    9          1     0.01750
   10          1     0.00887
   12          1     0.01108
   14          2     0.15697
   15          2     0.01194
   16          2     0.04041
   17          1     0.01230
   18          4     0.61799
   19          9     0.17348
   20         12     0.08660
   21          9     0.19213
   22         14     0.61598
   23         10     0.12228
   24         13     0.15853
   25         18     0.28951
   26         28     0.37832
   27         33     0.59510
   28         49     0.95255
   29         73     0.75579
   30         79     0.61959
   31        102     0.55959
   32         98     0.44325
   33        122     0.56191
   34        153     0.56815
   35        182     0.56196
   36        197     0.55813
   37        217     0.55976
   38        253     0.55376
   39        262     0.60039
   40        275     0.53832
   41        292     0.57061
   42        279     0.66114
   43        334     0.56023
   44        325     0.44460
   45        335     0.42549
   46        335     0.37732
   47        323     0.39769
   48        365     0.43917
   49        363     0.29260
   50        359     0.31589
   51        381     0.30537
   52        349     0.21495
   53        364     0.37661
   54        371     0.21476
   55        373     0.24658
   56        381     0.23393
   57        364     0.24342
   58        366     0.21939
   59        357     0.22649
   60        371     0.18610
   61        373     0.17155
   62        347     0.14218
   63        337     0.15720
   64        334     0.13378
   65        372     0.14468
   66        353     0.13635
   67        351     0.11266
   68        373     0.12926
   69        319     0.12871
   70        330     0.15147
   71        349     0.11658
   72        322     0.11060
   73        346     0.10145
   74        347     0.11292
   75        326     0.12218
   76        298     0.09219
   77        361     0.12519
   78        328     0.10441
   79        321     0.10216
   80        319     0.08934
   81        313     0.08975
   82        291     0.08222
   83        315     0.08864
   84        334     0.12985
   85        354     0.10685
   86        340     0.08023
   87        327     0.07907
   88        310     0.08266
   89        309     0.07280
   90        307     0.08898
   91        327     0.08271
   92        289     0.07332
   93        304     0.07644
   94        335     0.09109
   95        305     0.07884
   96        282     0.08209
   97        298     0.06790
   98        327     0.07068
   99        287     0.05748
  100        300     0.07385
  101        286     0.06686
  102        322     0.07144
  103        271     0.07249
  104        290     0.06449
  105        293     0.06689
  106        290     0.06677
  107        291     0.06370
  108        284     0.05703
  109        307     0.07091
  110        273     0.05516
  111        256     0.06425
  112        278     0.05957
  113        280     0.05843
  114        318     0.07941
  115        294     0.06137
  116        290     0.07805
  117        271     0.05986
  118        281     0.06789
  119        288     0.05507
  120        262     0.06037
  121        288     0.05664
  122        258     0.06174
  123        291     0.06587
  124        296     0.05547
  125        261     0.06547
  126        283     0.04600
  127        263     0.05345
  128        241     0.05093
  129        275     0.06884
  130        262     0.04599
  131        242     0.03819
  132        279     0.05124
  133        289     0.04546
  134        274     0.05318
  135        276     0.07490
  136        269     0.04915
  137        231     0.04017
  138        263     0.04909
  139        257     0.05427
  140        252     0.04749
  141        259     0.05251
  142        256     0.05172
  143        274     0.05338
  144        218     0.04587
  145        258     0.04002
  146        263     0.04103
  147        261     0.03929
  148        261     0.05073
  149        269     0.05077
  150        260     0.04699
  151        236     0.04724
  152        273     0.04530
  153        285     0.04467
  154        262     0.06022
  155        247     0.05447
  156        242     0.03879
  157        240     0.03989
  158        241     0.03368
  159        266     0.05548
  160        238     0.05070
  161        219     0.04518
  162        248     0.04524
  163        231     0.03135
  164        252     0.04237
  165        257     0.04058
  166        225     0.04593
  167        254     0.04124
  168        233     0.03959
  169        263     0.03561
  170        226     0.04633
  171        236     0.04152
  172        222     0.02967
  173        260     0.04924
  174        235     0.04192
  175        264     0.04479
  176        223     0.03585
  177        235     0.03688
  178        209     0.03639
  179        237     0.04540
  180        225     0.03361
  181        233     0.03438
  182        246     0.05378
  183        269     0.03736
  184        235     0.03127
  185        244     0.04514
  186        240     0.02667
  187        253     0.05115
  188        212     0.03800
  189        223     0.03562
  190        207     0.02981
  191        238     0.04415
  192        241     0.04192
  193        201     0.03112
  194        236     0.03535
  195        219     0.04673
  196        230     0.03953
  197        197     0.03441
  198        240     0.04026
  199        224     0.03125
  200        198     0.03436
  201        218     0.03269
  202        230     0.03250
  203        219     0.03554
  204        219     0.03426
  205        222     0.03127
  206        224     0.02879
  207        231     0.02926
  208        214     0.02597
  209        225     0.03284
  210        212     0.03406
  211        204     0.02932
  212        186     0.04223
  213        217     0.03486
  214        196     0.03177
  215        227     0.02734
  216        195     0.03998
  217        205     0.03155
  218        207     0.02684
  219        224     0.03721
  220        216     0.04115
  221        184     0.03347
  222        210     0.04720
  223        206     0.03095
  224        202     0.03344
  225        201     0.03997
  226        197     0.03867
  227        204     0.03229
  228        205     0.03860
  229        201     0.03203
  230        226     0.03645
  231        199     0.02666
  232        230     0.03689
  233        178     0.03545
  234        195     0.02675
  235        212     0.02814
  236        202     0.02926
  237        232     0.03541
  238        191     0.02617
  239        207     0.03030
  240        205     0.03358
  241        219     0.03017
  242        205     0.03979
  243        198     0.03582
  244        212     0.02761
  245        195     0.03027
  246        212     0.04240
  247        202     0.02228
  248        188     0.02677
  249        191     0.02138
  250        189     0.03354
  251        191     0.02901
  252        170     0.02690
  253        227     0.02781
  254        187     0.02691
  255        171     0.02845
  256        186     0.03806
  257        198     0.04238
  258        199     0.03340
  259        181     0.02574
  260        213     0.02722
  261        216     0.03058
  262        199     0.03083
  263        226     0.02540
  264        196     0.02845
  265        180     0.02924
  266        166     0.01935
  267        174     0.02918
  268        192     0.02803
  269        210     0.03674
  270        187     0.03227
  271        189     0.03514
  272        210     0.03001
  273        205     0.03434
  274        169     0.02520
  275        185     0.03457
  276        170     0.02732
  277        194     0.02925
  278        194     0.03344
  279        187     0.02999
  280        200     0.03040
  281        174     0.02818
  282        185     0.03644
  283        159     0.02857
  284        160     0.03441
  285        153     0.03337
  286        168     0.03040
  287        153     0.02856
  288        136     0.02817
  289        138     0.02225
  290        129     0.02550
  291        121     0.02662
  292        119     0.02399
  293        114     0.02498
  294        125     0.02528
  295        135     0.02841
  296        115     0.01616
  297        105     0.03127
  298         91     0.01883
  299        105     0.02309
  300         88     0.02223
  301         94     0.02183
  302         85     0.01914
  303         82     0.01866
  304         76     0.01732
  305         75     0.01755
  306         61     0.02238
  307         69     0.01785
  308         66     0.02179
  309         80     0.02204
  310         86     0.01609
  311         76     0.02149
  312         58     0.01950
  313         70     0.01966
  314         79     0.01846
  315         61     0.02302
  316         49     0.01546
  317         69     0.01884
  318         42     0.01782
  319         54     0.01904
  320         60     0.01317
  321         52     0.02203
  322         45     0.01718
  323         43     0.01898
  324         39     0.01639
  325         45     0.02525
  326         43     0.01744
  327         49     0.01669
  328         57     0.01793
  329         70     0.02656
  330         38     0.01991
  331         35     0.01132
  332         33     0.01303
  333         50     0.01217
  334         58     0.02242
  335         33     0.01600
  336         46     0.01804
  337         32     0.01822
  338         55     0.02434
  339         32     0.01385
  340         48     0.02371
  341         28     0.00964
  342         38     0.01844
  343         37     0.01753
  344         38     0.01787
  345         43     0.01573
  346         38     0.01811
  347         39     0.02071
  348         37     0.01174
  349         36     0.02185
  350         34     0.01468
  351         32     0.01749
  352         30     0.01864
  353         43     0.01744
  354         35     0.01585
  355         25     0.01132
  356         22     0.01270
  357         28     0.01341
  358         34     0.01763
  359         28     0.01393
  360         29     0.01459
  361         27     0.02058
  362         26     0.01299
  363         29     0.01136
  364         42     0.02112
  365         29     0.01791
  366         28     0.01543
  367         27     0.01500
  368         29     0.01102
  369         31     0.01193
  370         30     0.02292
  371         21     0.01033
  372         19     0.00934
  373         12     0.00825
  374         24     0.01457
  375         23     0.01656
  376         20     0.01399
  377         21     0.00953
  378         22     0.00902
  379         24     0.01539
  380         26     0.01292
  381         26     0.01908
  382         23     0.01594
  383         23     0.01958
  384         20     0.00938
  385         23     0.01942
  386         24     0.01885
  387         24     0.01478
  388         33     0.01956
  389         21     0.01410
  390         23     0.01764
  391         16     0.01135
  392         20     0.01580
  393         18     0.00858
  394         14     0.01197
  395         20     0.00952
  396         15     0.01155
  397         26     0.01444
  398         19     0.01964
  399         25     0.00975
  400         14     0.01439
  401         13     0.01171
  402         16     0.01520
  403         28     0.01387
  404         26     0.00990
  405         10     0.01135
  406         13     0.00990
  407         18     0.01695
  408         21     0.01585
  409         18     0.01360
  410         15     0.01367
  411         19     0.01275
  412         15     0.01141
  413         13     0.01058
  414         20     0.01544
  415         19     0.00913
  416         17     0.00821
  417         14     0.01204
  418         23     0.01696
  419         17     0.00878
  420         15     0.00862
  421         13     0.01321
  422         18     0.00857
  423         16     0.01130
  424         11     0.00928
  425         21     0.01204
  426         20     0.01046
  427         12     0.01017
  428          9     0.01615
  429         14     0.00830
  430         12     0.00771
  431         14     0.01252
  432         14     0.01307
  433         13     0.01177
  434         15     0.00986
  435         20     0.01177
  436          9     0.00998
  437         10     0.00956
  438         16     0.01379
  439         16     0.01147
  440         12     0.01251
  441         12     0.01209
  442          9     0.01143
  443         19     0.00902
  444         13     0.00770
  445         16     0.00863
  446         12     0.01177
  447         16     0.01189
  448         10     0.01003
  449          9     0.01064
  450          9     0.00744
  451         16     0.00856
  452         14     0.00802
  453         10     0.01090
  454         13     0.01170
  455         11     0.01128
  456         11     0.00750
  457          9     0.00748
  458         11     0.00806
  459         10     0.01172
  460         10     0.00808
  461          8     0.00701
  462         12     0.00820
  463         11     0.01526
  464         12     0.00812
  465         10     0.01287
  466          9     0.00755
  467          8     0.00754
  468         12     0.01399
  469         12     0.00830
  470         13     0.01144
  471         15     0.01073
  472          6     0.01083
  473         10     0.00781
  474          6     0.00989
  475          6     0.00705
  476          3     0.00602
  477         18     0.00919
  478          8     0.01165
  479          5     0.01083
  480          8     0.01183
  481          8     0.01427
  482         12     0.00957
  483          5     0.01187
  484          4     0.00624
  485          6     0.00680
  486          5     0.00636
  487          4     0.00690
  488         12     0.01349
  489         11     0.01096
  490          5     0.00938
  491          4     0.00649
  492          4     0.00664
  493          9     0.00714
  494          4     0.01503
  495          7     0.00627
  496          7     0.00630
  497          3     0.00575
  498          5     0.00656
  499          5     0.00596
  500          9     0.00742
  501          7     0.02901
  502          4     0.01115
  503          9     0.01146
  504          8     0.01036
  505          9     0.00744
  506          9     0.00730
  507         11     0.01076
  508          5     0.00939
  509          9     0.00988
  510          8     0.00741
  511          4     0.00588
  512          3     0.00575
  513          7     0.01149
  514          5     0.00638
  515          1     0.00573
  516          4     0.00622
  517          7     0.00713
  518          4     0.00641
  519          7     0.01051
  520          1     0.00556
  521          3     0.00580
  522          2     0.00625
  523          4     0.00601
  524          7     0.00672
  525          5     0.01188
  526          3     0.00961
  527          5     0.00674
  528          3     0.00601
  529          3     0.00601
  530          4     0.01184
  531          3     0.00602
  532          4     0.00594
  533          4     0.00583
  534          3     0.00568
  535          1     0.00565
  536          2     0.00608
  537          4     0.01271
  538          3     0.01160
  539          2     0.00592
  540          4     0.00597
  541          5     0.00846
  542          2     0.01043
  543          1     0.00576
  544          2     0.00597
  545          4     0.00667
  546          8     0.00890
  547          3     0.00617
  548          2     0.00542
  549          4     0.00684
  550          5     0.01274
  551          1     0.00565
  552          3     0.00588
  553          2     0.00602
  554          5     0.00976
  555          1     0.00558
  556          2     0.00562
  557          4     0.00627
  558          3     0.00596
  559          3     0.00764
  561          6     0.00672
  562          3     0.00914
  563          2     0.00590
  564          4     0.00647
  566          2     0.00577
  568          1     0.00584
  569          1     0.00568
  570          1     0.00518
  571          1     0.00875
  572          3     0.00602
  573          4     0.00993
  574          3     0.00628
  575          3     0.00997
  576          2     0.00609
  578          3     0.00599
  579          2     0.00931
  580          1     0.00578
  581          1     0.00611
  582          3     0.00587
  584          4     0.00693
  585          4     0.01003
  586          1     0.00622
  588          2     0.00615
  589          3     0.01012
  590          2     0.00578
  591          2     0.00556
  593          2     0.00528
  594          4     0.00644
  595          2     0.00562
  596          1     0.00603
  600          1     0.00573
  601          1     0.00548
  602          1     0.00597
  603          2     0.00606
  604          3     0.00641
  605          3     0.01149
  606          1     0.00591
  608          2     0.00632
  609          1     0.00574
  610          4     0.00667
  612          1     0.00549
  614          1     0.00594
  615          2     0.00589
  616          1     0.00591
  618          2     0.01310
  619          2     0.00615
  621          1     0.00669
  622          1     0.00622
  623          3     0.01595
  624          2     0.00932
  625          1     0.00659
  626          2     0.00569
  627          2     0.00901
  628          4     0.01014
  629          2     0.00618
  630          2     0.00577
  634          1     0.00586
  635          3     0.00599
  637          3     0.00856
  638          2     0.00581
  639          1     0.00554
  640          1     0.00585
  641          1     0.00558
  642          1     0.00560
  643          1     0.00883
  646          2     0.00617
  648          2     0.00590
  649          2     0.00945
  653          2     0.00607
  654          1     0.00551
  655          2     0.00558
  656          1     0.00587
  657          2     0.00592
  658          1     0.00565
  659          1     0.00878
  660          1     0.00560
  661          1     0.00556
  663          1     0.00552
  667          1     0.00582
  668          2     0.01053
  669          1     0.00552
  670          2     0.00626
  672          2     0.00598
  680          1     0.00561
  683          1     0.00570
  685          1     0.00600
  686          1     0.00530
  688          1     0.00603
  691          3     0.00611
  692          1     0.00571
  697          1     0.00596
  698          2     0.00560
[...]
 1246          1     0.00504
took 692 iterations
Trial Time:          0.04791
    0          1     0.01673
  149          1     0.03928
  175          1     0.25552
  176          1     0.02384
  177          1     0.15744
  178          1     0.02769
  179          3     0.14048
  180          4     0.06287
  181          7     0.39330
  182          7     0.20712
  183          8     0.21477
  184         10     0.38215
  185          9     0.14858
  186         20     0.35255
  187         22     0.26398
  188         23     0.69435
  189         46     0.50614
  190         52     0.33064
  191         55     0.53136
  192         81     0.47208
  193         99     0.64747
  194        111     0.56151
  195        126     0.56457
  196        163     0.45634
  197        165     0.52395
  198        199     0.93783
  199        195     0.83645
  200        257     0.47074
  201        222     0.43749
  202        230     0.37681
  203        278     0.39849
  204        296     0.43547
  205        311     0.69327
  206        322     0.42186
  207        319     0.31335
  208        307     0.41226
  209        333     0.37882
  210        311     0.35100
  211        376     0.32719
  212        359     0.30151
  213        345     0.48698
  214        333     0.32559
  215        351     0.23591
  216        341     0.28641
  217        352     0.22093
  218        370     0.22988
  219        388     0.30713
  220        335     0.17716
  221        326     0.21952
  222        371     0.19298
  223        375     0.17721
  224        359     0.21361
  225        333     0.15151
  226        347     0.14796
  227        354     0.18963
  228        342     0.16824
  229        385     0.16269
  230        369     0.16420
  231        361     0.13116
  232        343     0.12253
  233        330     0.10873
  234        366     0.10760
  235        340     0.15414
  236        357     0.12532
  237        355     0.10872
  238        339     0.11955
  239        325     0.08514
  240        356     0.08984
  241        309     0.08994
  242        315     0.10642
  243        351     0.08799
  244        304     0.08297
  245        308     0.09739
  246        304     0.09059
  247        325     0.09270
  248        334     0.08475
  249        315     0.09022
  250        292     0.07737
  251        319     0.08196
  252        314     0.08820
  253        320     0.09663
  254        301     0.08725
  255        309     0.08250
  256        335     0.08309
  257        303     0.07939
  258        307     0.06823
  259        296     0.07654
  260        323     0.09845
  261        301     0.06741
  262        299     0.06905
  263        266     0.05862
  264        295     0.06964
  265        291     0.05915
  266        316     0.07631
  267        261     0.07046
  268        308     0.08557
  269        294     0.07330
  270        274     0.05786
  271        267     0.05461
  272        293     0.05846
  273        263     0.05958
  274        281     0.05928
  275        294     0.06625
  276        308     0.06763
  277        262     0.05236
  278        333     0.07825
  279        303     0.07833
  280        292     0.06492
  281        276     0.05737
  282        279     0.05165
  283        280     0.06331
  284        297     0.06114
  285        269     0.05047
  286        293     0.06854
  287        271     0.04442
  288        262     0.05448
  289        276     0.04555
  290        261     0.05073
  291        279     0.04619
  292        264     0.05329
  293        260     0.03969
  294        263     0.04839
  295        273     0.05660
  296        268     0.05195
  297        251     0.06475
  298        261     0.06720
  299        285     0.05852
  300        257     0.05432
  301        228     0.05124
  302        254     0.04221
  303        280     0.04355
  304        246     0.05168
  305        238     0.03866
  306        246     0.04474
  307        258     0.05360
  308        253     0.04545
  309        250     0.06485
  310        233     0.05010
  311        242     0.04920
  312        217     0.04592
  313        260     0.05322
  314        243     0.04609
  315        271     0.04228
  316        231     0.04850
  317        277     0.04651
  318        253     0.04601
  319        247     0.03628
  320        261     0.04429
  321        233     0.03746
  322        216     0.03722
  323        247     0.06106
  324        247     0.03739
  325        231     0.03644
  326        228     0.03845
  327        229     0.03379
  328        257     0.04608
  329        271     0.04184
  330        251     0.04432
  331        229     0.04555
  332        270     0.04485
  333        227     0.04121
  334        228     0.03239
  335        234     0.05209
  336        258     0.04354
  337        236     0.04983
  338        213     0.03487
  339        256     0.04783
  340        240     0.04255
  341        257     0.03492
  342        239     0.04277
  343        257     0.04446
  344        223     0.03753
  345        277     0.03823
  346        234     0.02987
  347        249     0.04835
  348        224     0.04357
  349        222     0.03188
  350        230     0.03060
  351        225     0.03392
  352        214     0.04059
  353        239     0.04042
  354        211     0.03523
  355        229     0.04312
  356        209     0.02484
  357        227     0.03362
  358        222     0.03296
  359        213     0.03350
  360        199     0.03278
  361        227     0.03912
  362        215     0.04519
  363        229     0.03780
  364        214     0.02482
  365        215     0.03834
  366        218     0.03229
  367        194     0.02967
  368        221     0.02695
  369        225     0.03354
  370        220     0.02710
  371        200     0.03323
  372        236     0.04049
  373        210     0.04098
  374        212     0.05570
  375        229     0.03396
  376        204     0.02620
  377        195     0.03165
  378        199     0.02546
  379        224     0.03473
  380        208     0.02847
  381        201     0.03183
  382        216     0.03537
  383        195     0.02546
  384        204     0.03479
  385        205     0.02739
  386        216     0.03487
  387        208     0.03087
  388        223     0.03575
  389        169     0.03201
  390        202     0.04019
  391        199     0.03218
  392        188     0.03562
  393        203     0.02516
  394        189     0.04781
  395        201     0.03251
  396        215     0.03571
  397        217     0.03158
  398        202     0.03718
  399        211     0.02788
  400        204     0.03106
  401        188     0.03104
  402        196     0.02279
  403        225     0.03177
  404        220     0.03557
  405        179     0.02815
  406        174     0.01871
  407        216     0.02449
  408        185     0.04100
  409        182     0.02326
  410        207     0.03243
  411        192     0.03782
  412        187     0.03736
  413        185     0.02939
  414        213     0.02614
  415        198     0.02462
  416        202     0.02440
  417        197     0.02783
  418        214     0.03254
  419        180     0.02614
  420        201     0.02834
  421        211     0.03290
  422        198     0.02806
  423        193     0.03304
  424        180     0.02546
  425        197     0.02780
  426        206     0.03424
  427        199     0.03584
  428        174     0.02179
  429        174     0.02594
  430        185     0.03048
  431        224     0.02934
  432        208     0.02876
  433        191     0.04181
  434        188     0.03694
  435        184     0.03556
  436        176     0.03193
  437        205     0.03374
  438        202     0.03159
  439        188     0.03726
  440        172     0.02146
  441        164     0.02846
  442        183     0.03428
  443        181     0.02852
  444        167     0.03089
  445        184     0.03379
  446        143     0.02971
  447        166     0.02091
  448        157     0.02104
  449        152     0.02201
  450        148     0.02885
  451        152     0.02630
  452        143     0.03098
  453        141     0.02634
  454        126     0.02378
  455        135     0.02505
  456        112     0.02625
  457        104     0.02078
  458        124     0.01925
  459        123     0.02406
  460        109     0.02973
  461        108     0.02199
  462         81     0.01884
  463         94     0.02165
  464         88     0.02197
  465         96     0.01742
  466         87     0.02175
  467         87     0.01878
  468         79     0.01459
  469         88     0.02699
  470         71     0.02142
  471         75     0.01953
  472         66     0.02014
  473         65     0.01992
  474         70     0.03060
  475         74     0.02317
  476         60     0.01578
  477         55     0.02210
  478         53     0.02149
  479         56     0.01874
  480         56     0.02505
  481         54     0.01617
  482         52     0.02105
  483         54     0.01977
  484         49     0.02360
  485         51     0.01938
  486         57     0.02457
  487         50     0.01430
  488         46     0.01573
  489         55     0.02140
  490         50     0.02196
  491         47     0.01241
  492         46     0.01281
  493         54     0.02069
  494         44     0.01915
  495         38     0.01651
  496         50     0.01732
  497         42     0.01830
  498         41     0.01799
  499         44     0.01255
  500         47     0.02479
  501         34     0.01589
  502         60     0.02707
  503         38     0.01976
  504         40     0.01792
  505         35     0.01202
  506         40     0.01268
  507         33     0.01963
  508         33     0.01072
  509         49     0.01557
  510         31     0.01684
  511         40     0.01195
  512         29     0.02744
  513         34     0.01225
  514         24     0.01228
  515         33     0.02152
  516         37     0.01447
  517         29     0.01279
  518         23     0.00948
  519         24     0.01309
  520         31     0.01039
  521         28     0.01355
  522         22     0.01395
  523         44     0.02143
  524         28     0.01895
  525         29     0.01092
  526         28     0.01827
  527         29     0.01355
  528         34     0.01254
  529         18     0.00930
  530         27     0.01521
  531         35     0.01426
  532         24     0.01377
  533         32     0.01527
  534         31     0.01642
  535         24     0.01707
  536         20     0.01475
  537         24     0.00943
  538         22     0.01107
  539         18     0.01390
  540         21     0.01249
  541         25     0.00979
  542         16     0.00881
  543         25     0.00920
  544         24     0.01522
  545         25     0.01492
  546         20     0.04065
  547         29     0.01256
  548         21     0.01550
  549         21     0.01881
  550         22     0.01912
  551         21     0.01187
  552         24     0.02097
  553         23     0.01072
  554         25     0.00998
  555         19     0.01297
  556         25     0.00989
  557         24     0.01456
  558         18     0.00880
  559         24     0.01258
  560         16     0.01034
  561         17     0.01329
  562         20     0.01539
  563         17     0.01537
  564         16     0.00841
  565         20     0.01527
  566         15     0.01021
  567         12     0.00941
  568         18     0.01913
  569         11     0.01085
  570         28     0.02784
  571         19     0.00913
  572         16     0.01229
  573         24     0.00955
  574         18     0.01184
  575         20     0.01563
  576         17     0.01322
  577         13     0.00933
  578         15     0.00878
  579         15     0.01302
  580         15     0.00841
  581         18     0.01195
  582          8     0.00741
  583         14     0.01275
  584         20     0.01833
  585         17     0.01312
  586         13     0.00943
  587         17     0.00868
  588         17     0.01047
  589         11     0.00759
  590         25     0.01022
  591         14     0.00789
  592         14     0.01207
  593         13     0.01316
  594         17     0.01167
  595          9     0.00981
  596         13     0.00811
  597         15     0.01442
  598         18     0.01318
  599         13     0.00801
  600         14     0.00818
  601         14     0.01232
  602         15     0.01089
  603         11     0.00776
  604          8     0.01399
  605         11     0.01264
  606         16     0.01305
  607         14     0.01383
  608         13     0.00848
  609         13     0.01063
  610         19     0.01292
  611         14     0.00763
  612          9     0.00742
  613         14     0.00967
  614          9     0.00786
  615          9     0.00771
  616         14     0.01257
  617         15     0.00821
  618          7     0.01160
  619          6     0.01406
  620         13     0.00817
  621         10     0.01079
  622         16     0.00886
  623          7     0.00721
  624         10     0.01297
  625         12     0.01470
  626         10     0.00745
  627         10     0.00816
  628          7     0.01051
  629         15     0.00818
  630         12     0.00984
  631         13     0.01806
  632          8     0.00782
  633         10     0.00757
  634         11     0.00782
  635          9     0.00987
  636          8     0.01381
  637          9     0.00773
  638         12     0.01361
  639          9     0.00747
  640          8     0.01090
  641          8     0.01376
  642         12     0.00798
  643          7     0.00680
  644          5     0.00616
  645          6     0.00687
  646          7     0.00716
  647          6     0.01476
  648          8     0.00760
  649          4     0.00658
  650          9     0.00740
  651          6     0.00682
  652          5     0.00791
  653         11     0.00823
  654          7     0.01064
  655          5     0.00656
  656          3     0.00577
  657          5     0.00579
  658          7     0.00714
  659          3     0.00618
  660          8     0.01272
  661          5     0.00630
  662          5     0.01009
  663          5     0.00664
  664          8     0.01878
  665         12     0.01120
  666          9     0.01188
  667          9     0.00781
  668          3     0.00601
  669          6     0.01090
  670          6     0.00700
  671          3     0.00657
  672          5     0.00672
  673          6     0.00709
  674          9     0.00745
  675          5     0.00672
  676          4     0.00606
  677          7     0.00821
  678          7     0.00998
  679          4     0.00558
  680          3     0.00605
  681          5     0.01077
  682          8     0.00768
  683          2     0.00563
  684          4     0.00637
  685          2     0.00574
  686          6     0.01072
  687          6     0.00707
  688          6     0.00669
  689          2     0.00624
  690          4     0.00619
  691          3     0.00591
  692          3     0.00668
  694          5     0.01039
  695          2     0.00620
  696          4     0.00597
  697          3     0.00575
  698          1     0.00566
  699          4     0.00575
  700          5     0.01076
  701          1     0.00557
  702          1     0.00538
  703          4     0.00573
  704          4     0.00586
  705          5     0.00639
  706          6     0.00749
  707          3     0.00556
  708          6     0.00737
  709          2     0.00569
  710          5     0.01130
  711          3     0.01041
  712          5     0.00938
  713          2     0.01435
  714          6     0.01139
  715          1     0.00561
  716          2     0.00583
  717          1     0.00574
  718          2     0.00545
  719          5     0.00702
  720          4     0.00741
  721          5     0.01093
  722          2     0.00616
  723          3     0.00795
  724          4     0.00651
  725          1     0.00574
  728          1     0.00970
  729          1     0.00577
  730          2     0.00556
  731          2     0.01058
  732          2     0.00562
  733          2     0.00838
  734          1     0.00559
  735          3     0.00606
  736          3     0.00529
  737          2     0.00534
  738          1     0.00537
  739          3     0.00580
  740          1     0.00563
  741          2     0.00585
  742          1     0.00542
  743          4     0.00963
  745          1     0.00584
  746          1     0.00596
  747          3     0.00847
  748          2     0.00575
  749          4     0.01090
  750          1     0.00573
  752          3     0.00626
  753          1     0.00540
  754          2     0.00594
  755          1     0.00571
  758          3     0.00571
  759          2     0.00536
  760          3     0.00555
  761          2     0.00537
  763          4     0.00584
  764          3     0.00581
  766          3     0.00634
  769          1     0.00570
  770          4     0.00739
  771          1     0.00554
  773          1     0.00551
  774          3     0.00563
  775          3     0.00938
  776          1     0.00537
  777          1     0.00541
  778          2     0.00568
  779          1     0.00556
  780          2     0.00560
  782          2     0.00610
  783          1     0.00553
  786          2     0.01750
  788          5     0.01009
  789          1     0.00556
  792          4     0.01068
  794          2     0.00702
  795          1     0.00576
  797          3     0.00657
  798          1     0.01162
  799          2     0.00603
  800          2     0.00604
  804          2     0.00902
  805          1     0.00949
  809          3     0.00626
  811          1     0.00591
  812          1     0.00577
  813          2     0.00579
  814          2     0.00597
  815          1     0.00974
  816          1     0.00567
  817          3     0.00911
  818          2     0.00558
  819          1     0.00527
  821          3     0.00605
  824          3     0.00676
  829          1     0.00581
  830          1     0.00583
  831          2     0.03430
  833          2     0.00637
  834          1     0.00611
  837          1     0.00572
  848          2     0.00594
  849          2     0.00588
  850          1     0.00574
  851          1     0.00586
  855          1     0.00516
  856          1     0.00566
  857          1     0.00528
  858          1     0.00551
  859          1     0.00554
  861          1     0.00549
  862          1     0.00925
  867          1     0.00574
  870          1     0.00588
  871          2     0.00893
  872          2     0.00543
  876          1     0.00521
  877          1     0.00517
  879          1     0.00549
  880          1     0.00563
  881          1     0.00566
  887          1     0.00584
  893          1     0.00556
  896          1     0.00571
  899          1     0.00541
  900          1     0.00557
  901          1     0.00573
  908          1     0.00649
  930          1     0.00665
  932          1     0.00620
  941          1     0.00987
  945          2     0.01081
  947          1     0.00583
  951          1     0.00633
  952          1     0.00581
  956          1     0.00900
  961          1     0.00604
  962          1     0.00649
  972          1     0.00594
  989          1     0.00613
  993          1     0.00613
 1002          1     0.00639
 1003          1     0.00564
 1005          1     0.00605
 1009          1     0.00541
 1017          1     0.00615
 1041          1     0.00583
 1046          1     0.01342
 1049          2     0.00656
 1050          1     0.00661
 1051          1     0.00638
 1078          1     0.00593
 1097          1     0.00697
 1238          1     0.00537
took 681 iterations
Trial Time:          0.04724
Average Time:        0.04167
Exiting @ tick 1366660542000 because exiting with last active thread context
