
---------- Begin Simulation Statistics ----------
final_tick                               699605320000                       # Number of ticks from beginning of simulation (restored from checkpoints and never reset)
host_inst_rate                                  56586                       # Simulator instruction rate (inst/s)
host_mem_usage                                 701652                       # Number of bytes of host memory used
host_op_rate                                    56755                       # Simulator op (including micro ops) rate (op/s)
host_seconds                                 12035.82                       # Real time elapsed on the host
host_tick_rate                               58126910                       # Simulator tick rate (ticks/s)
sim_freq                                 1000000000000                       # Frequency of simulated ticks
sim_insts                                   681057067                       # Number of instructions simulated
sim_ops                                     683094679                       # Number of ops (including micro ops) simulated
sim_seconds                                  0.699605                       # Number of seconds simulated
sim_ticks                                699605320000                       # Number of ticks simulated
system.cpu0.branchPred.BTBCorrect                   0                       # Number of correct BTB predictions (this stat may not work properly.
system.cpu0.branchPred.BTBHitPct            84.829658                       # BTB Hit Percentage
system.cpu0.branchPred.BTBHits               87782176                       # Number of BTB hits
system.cpu0.branchPred.BTBLookups           103480526                       # Number of BTB lookups
system.cpu0.branchPred.RASInCorrect                 0                       # Number of incorrect RAS predictions.
system.cpu0.branchPred.condIncorrect         13053284                       # Number of conditional branches incorrect
system.cpu0.branchPred.condPredicted        133076376                       # Number of conditional branches predicted
system.cpu0.branchPred.indirectHits          13631270                       # Number of indirect target hits.
system.cpu0.branchPred.indirectLookups       13776825                       # Number of indirect predictor lookups.
system.cpu0.branchPred.indirectMisses          145555                       # Number of indirect misses.
system.cpu0.branchPred.lookups              170953899                       # Number of BP lookups
system.cpu0.branchPred.usedRAS                      0                       # Number of times the RAS was used to get a target.
system.cpu0.branchPredindirectMispredicted      1083156                       # Number of mispredicted indirect branches.
system.cpu0.commit.amos                       1018218                       # Number of atomic instructions committed
system.cpu0.commit.branchMispredicts          7721741                       # The number of times a branch was mispredicted
system.cpu0.commit.branches                 151209351                       # Number of branches committed
system.cpu0.commit.bw_lim_events             19683098                       # number cycles where commit BW limit reached
system.cpu0.commit.commitNonSpecStalls        3058521                       # The number of times commit has been forced to stall to communicate backwards
system.cpu0.commit.commitSquashedInsts       83269259                       # The number of squashed insts skipped by commit
system.cpu0.commit.committedInsts           623664533                       # Number of instructions committed
system.cpu0.commit.committedOps             624684033                       # Number of ops (including micro ops) committed
system.cpu0.commit.committed_per_cycle::samples   1167810486                       # Number of insts commited each cycle
system.cpu0.commit.committed_per_cycle::mean     0.534919                       # Number of insts commited each cycle
system.cpu0.commit.committed_per_cycle::stdev     1.333953                       # Number of insts commited each cycle
system.cpu0.commit.committed_per_cycle::underflows            0      0.00%      0.00% # Number of insts commited each cycle
system.cpu0.commit.committed_per_cycle::0    875417362     74.96%     74.96% # Number of insts commited each cycle
system.cpu0.commit.committed_per_cycle::1    171636566     14.70%     89.66% # Number of insts commited each cycle
system.cpu0.commit.committed_per_cycle::2     44012120      3.77%     93.43% # Number of insts commited each cycle
system.cpu0.commit.committed_per_cycle::3     33228648      2.85%     96.27% # Number of insts commited each cycle
system.cpu0.commit.committed_per_cycle::4     15719820      1.35%     97.62% # Number of insts commited each cycle
system.cpu0.commit.committed_per_cycle::5      5022430      0.43%     98.05% # Number of insts commited each cycle
system.cpu0.commit.committed_per_cycle::6      1752025      0.15%     98.20% # Number of insts commited each cycle
system.cpu0.commit.committed_per_cycle::7      1338417      0.11%     98.31% # Number of insts commited each cycle
system.cpu0.commit.committed_per_cycle::8     19683098      1.69%    100.00% # Number of insts commited each cycle
system.cpu0.commit.committed_per_cycle::overflows            0      0.00%    100.00% # Number of insts commited each cycle
system.cpu0.commit.committed_per_cycle::min_value            0                       # Number of insts commited each cycle
system.cpu0.commit.committed_per_cycle::max_value            8                       # Number of insts commited each cycle
system.cpu0.commit.committed_per_cycle::total   1167810486                       # Number of insts commited each cycle
system.cpu0.commit.fp_insts                        50                       # Number of committed floating point instructions.
system.cpu0.commit.function_calls            13130598                       # Number of function calls committed.
system.cpu0.commit.int_insts                604979746                       # Number of committed integer instructions.
system.cpu0.commit.loads                    190159514                       # Number of loads committed
system.cpu0.commit.membars                    2037598                       # Number of memory barriers committed
system.cpu0.commit.op_class_0::No_OpClass      2037604      0.33%      0.33% # Class of committed instruction
system.cpu0.commit.op_class_0::IntAlu       347125901     55.57%     55.89% # Class of committed instruction
system.cpu0.commit.op_class_0::IntMult        4400507      0.70%     56.60% # Class of committed instruction
system.cpu0.commit.op_class_0::IntDiv         1542070      0.25%     56.85% # Class of committed instruction
system.cpu0.commit.op_class_0::FloatAdd             0      0.00%     56.85% # Class of committed instruction
system.cpu0.commit.op_class_0::FloatCmp             4      0.00%     56.85% # Class of committed instruction
system.cpu0.commit.op_class_0::FloatCvt            12      0.00%     56.85% # Class of committed instruction
system.cpu0.commit.op_class_0::FloatMult            0      0.00%     56.85% # Class of committed instruction
system.cpu0.commit.op_class_0::FloatMultAcc            0      0.00%     56.85% # Class of committed instruction
system.cpu0.commit.op_class_0::FloatDiv             2      0.00%     56.85% # Class of committed instruction
system.cpu0.commit.op_class_0::FloatMisc            4      0.00%     56.85% # Class of committed instruction
system.cpu0.commit.op_class_0::FloatSqrt            0      0.00%     56.85% # Class of committed instruction
system.cpu0.commit.op_class_0::SimdAdd              0      0.00%     56.85% # Class of committed instruction
system.cpu0.commit.op_class_0::SimdAddAcc            0      0.00%     56.85% # Class of committed instruction
system.cpu0.commit.op_class_0::SimdAlu              0      0.00%     56.85% # Class of committed instruction
system.cpu0.commit.op_class_0::SimdCmp              0      0.00%     56.85% # Class of committed instruction
system.cpu0.commit.op_class_0::SimdCvt              0      0.00%     56.85% # Class of committed instruction
system.cpu0.commit.op_class_0::SimdMisc             0      0.00%     56.85% # Class of committed instruction
system.cpu0.commit.op_class_0::SimdMult             0      0.00%     56.85% # Class of committed instruction
system.cpu0.commit.op_class_0::SimdMultAcc            0      0.00%     56.85% # Class of committed instruction
system.cpu0.commit.op_class_0::SimdShift            0      0.00%     56.85% # Class of committed instruction
system.cpu0.commit.op_class_0::SimdShiftAcc            0      0.00%     56.85% # Class of committed instruction
system.cpu0.commit.op_class_0::SimdDiv              0      0.00%     56.85% # Class of committed instruction
system.cpu0.commit.op_class_0::SimdSqrt             0      0.00%     56.85% # Class of committed instruction
system.cpu0.commit.op_class_0::SimdFloatAdd            0      0.00%     56.85% # Class of committed instruction
system.cpu0.commit.op_class_0::SimdFloatAlu            0      0.00%     56.85% # Class of committed instruction
system.cpu0.commit.op_class_0::SimdFloatCmp            0      0.00%     56.85% # Class of committed instruction
system.cpu0.commit.op_class_0::SimdFloatCvt            0      0.00%     56.85% # Class of committed instruction
system.cpu0.commit.op_class_0::SimdFloatDiv            0      0.00%     56.85% # Class of committed instruction
system.cpu0.commit.op_class_0::SimdFloatMisc            0      0.00%     56.85% # Class of committed instruction
system.cpu0.commit.op_class_0::SimdFloatMult            0      0.00%     56.85% # Class of committed instruction
system.cpu0.commit.op_class_0::SimdFloatMultAcc            0      0.00%     56.85% # Class of committed instruction
system.cpu0.commit.op_class_0::SimdFloatSqrt            0      0.00%     56.85% # Class of committed instruction
system.cpu0.commit.op_class_0::SimdReduceAdd            0      0.00%     56.85% # Class of committed instruction
system.cpu0.commit.op_class_0::SimdReduceAlu            0      0.00%     56.85% # Class of committed instruction
system.cpu0.commit.op_class_0::SimdReduceCmp            0      0.00%     56.85% # Class of committed instruction
system.cpu0.commit.op_class_0::SimdFloatReduceAdd            0      0.00%     56.85% # Class of committed instruction
system.cpu0.commit.op_class_0::SimdFloatReduceCmp            0      0.00%     56.85% # Class of committed instruction
system.cpu0.commit.op_class_0::SimdAes              0      0.00%     56.85% # Class of committed instruction
system.cpu0.commit.op_class_0::SimdAesMix            0      0.00%     56.85% # Class of committed instruction
system.cpu0.commit.op_class_0::SimdSha1Hash            0      0.00%     56.85% # Class of committed instruction
system.cpu0.commit.op_class_0::SimdSha1Hash2            0      0.00%     56.85% # Class of committed instruction
system.cpu0.commit.op_class_0::SimdSha256Hash            0      0.00%     56.85% # Class of committed instruction
system.cpu0.commit.op_class_0::SimdSha256Hash2            0      0.00%     56.85% # Class of committed instruction
system.cpu0.commit.op_class_0::SimdShaSigma2            0      0.00%     56.85% # Class of committed instruction
system.cpu0.commit.op_class_0::SimdShaSigma3            0      0.00%     56.85% # Class of committed instruction
system.cpu0.commit.op_class_0::SimdPredAlu            0      0.00%     56.85% # Class of committed instruction
system.cpu0.commit.op_class_0::MemRead      191177724     30.60%     87.45% # Class of committed instruction
system.cpu0.commit.op_class_0::MemWrite      78400177     12.55%    100.00% # Class of committed instruction
system.cpu0.commit.op_class_0::FloatMemRead            8      0.00%    100.00% # Class of committed instruction
system.cpu0.commit.op_class_0::FloatMemWrite           20      0.00%    100.00% # Class of committed instruction
system.cpu0.commit.op_class_0::IprAccess            0      0.00%    100.00% # Class of committed instruction
system.cpu0.commit.op_class_0::InstPrefetch            0      0.00%    100.00% # Class of committed instruction
system.cpu0.commit.op_class_0::total        624684033                       # Class of committed instruction
system.cpu0.commit.refs                     269577929                       # Number of memory references committed
system.cpu0.commit.swp_count                        0                       # Number of s/w prefetches committed
system.cpu0.commit.vec_insts                        0                       # Number of committed Vector instructions.
system.cpu0.committedInsts                  623664533                       # Number of Instructions Simulated
system.cpu0.committedOps                    624684033                       # Number of Ops (including micro ops) Simulated
system.cpu0.cpi                              2.228872                       # CPI: Cycles Per Instruction
system.cpu0.cpi_total                        2.228872                       # CPI: Total CPI of All Threads
system.cpu0.decode.BlockedCycles            240353348                       # Number of cycles decode is blocked
system.cpu0.decode.BranchMispred              5338189                       # Number of times decode detected a branch misprediction
system.cpu0.decode.BranchResolved            85901866                       # Number of times decode resolved a branch
system.cpu0.decode.DecodedInsts             727713612                       # Number of instructions handled by decode
system.cpu0.decode.IdleCycles               421533897                       # Number of cycles decode is idle
system.cpu0.decode.RunCycles                510120397                       # Number of cycles decode is running
system.cpu0.decode.SquashCycles               7729840                       # Number of cycles decode is squashing
system.cpu0.decode.SquashedInsts             11064783                       # Number of squashed instructions handled by decode
system.cpu0.decode.UnblockCycles              4725129                       # Number of cycles decode is unblocking
system.cpu0.dtb.accesses                            0                       # DTB accesses
system.cpu0.dtb.hits                                0                       # DTB hits
system.cpu0.dtb.misses                              0                       # DTB misses
system.cpu0.dtb.read_accesses                       0                       # DTB read accesses
system.cpu0.dtb.read_hits                           0                       # DTB read hits
system.cpu0.dtb.read_misses                         0                       # DTB read misses
system.cpu0.dtb.write_accesses                      0                       # DTB write accesses
system.cpu0.dtb.write_hits                          0                       # DTB write hits
system.cpu0.dtb.write_misses                        0                       # DTB write misses
system.cpu0.fetch.Branches                  170953899                       # Number of branches that fetch encountered
system.cpu0.fetch.CacheLines                131766995                       # Number of cache lines fetched
system.cpu0.fetch.Cycles                    752513750                       # Number of cycles fetch has run and was not squashing or blocked
system.cpu0.fetch.IcacheSquashes              2701490                       # Number of outstanding Icache misses that were squashed
system.cpu0.fetch.IcacheWaitRetryStallCycles           90                       # Number of stall cycles due to full MSHR
system.cpu0.fetch.Insts                     751431794                       # Number of instructions fetch has processed
system.cpu0.fetch.MiscStallCycles                   9                       # Number of cycles fetch has spent waiting on interrupts, or bad addresses, or out of MSHRs
system.cpu0.fetch.SquashCycles               26122766                       # Number of cycles fetch has spent squashing
system.cpu0.fetch.branchRate                 0.122982                       # Number of branch fetches per cycle
system.cpu0.fetch.icacheStallCycles         418887379                       # Number of cycles fetch is stalled on an Icache miss
system.cpu0.fetch.predictedBranches         101413446                       # Number of branches that fetch has predicted taken
system.cpu0.fetch.rate                       0.540572                       # Number of inst fetches per cycle
system.cpu0.fetch.rateDist::samples        1184462611                       # Number of instructions fetched each cycle (Total)
system.cpu0.fetch.rateDist::mean             0.635269                       # Number of instructions fetched each cycle (Total)
system.cpu0.fetch.rateDist::stdev            0.872276                       # Number of instructions fetched each cycle (Total)
system.cpu0.fetch.rateDist::underflows              0      0.00%      0.00% # Number of instructions fetched each cycle (Total)
system.cpu0.fetch.rateDist::0               639012956     53.95%     53.95% # Number of instructions fetched each cycle (Total)
system.cpu0.fetch.rateDist::1               411034297     34.70%     88.65% # Number of instructions fetched each cycle (Total)
system.cpu0.fetch.rateDist::2                83313914      7.03%     95.69% # Number of instructions fetched each cycle (Total)
system.cpu0.fetch.rateDist::3                38380068      3.24%     98.93% # Number of instructions fetched each cycle (Total)
system.cpu0.fetch.rateDist::4                 6477376      0.55%     99.47% # Number of instructions fetched each cycle (Total)
system.cpu0.fetch.rateDist::5                 4748883      0.40%     99.87% # Number of instructions fetched each cycle (Total)
system.cpu0.fetch.rateDist::6                  473010      0.04%     99.91% # Number of instructions fetched each cycle (Total)
system.cpu0.fetch.rateDist::7                 1019143      0.09%    100.00% # Number of instructions fetched each cycle (Total)
system.cpu0.fetch.rateDist::8                    2964      0.00%    100.00% # Number of instructions fetched each cycle (Total)
system.cpu0.fetch.rateDist::overflows               0      0.00%    100.00% # Number of instructions fetched each cycle (Total)
system.cpu0.fetch.rateDist::min_value               0                       # Number of instructions fetched each cycle (Total)
system.cpu0.fetch.rateDist::max_value               8                       # Number of instructions fetched each cycle (Total)
system.cpu0.fetch.rateDist::total          1184462611                       # Number of instructions fetched each cycle (Total)
system.cpu0.fp_regfile_reads                       44                       # number of floating regfile reads
system.cpu0.fp_regfile_writes                      23                       # number of floating regfile writes
system.cpu0.idleCycles                      205605674                       # Total number of cycles that the CPU has spent unscheduled due to idling
system.cpu0.iew.branchMispredicts             7793958                       # Number of branch mispredicts detected at execute
system.cpu0.iew.exec_branches               161322514                       # Number of branches executed
system.cpu0.iew.exec_nop                            0                       # number of nop insts executed
system.cpu0.iew.exec_rate                    0.503734                       # Inst execution rate
system.cpu0.iew.exec_refs                   317153387                       # number of memory reference insts executed
system.cpu0.iew.exec_stores                  95714208                       # Number of stores executed
system.cpu0.iew.exec_swp                            0                       # number of swp insts executed
system.cpu0.iew.iewBlockCycles              183966700                       # Number of cycles IEW is blocking
system.cpu0.iew.iewDispLoadInsts            218767209                       # Number of dispatched load instructions
system.cpu0.iew.iewDispNonSpecInsts           1021167                       # Number of dispatched non-speculative instructions
system.cpu0.iew.iewDispSquashedInsts          4682476                       # Number of squashed instructions skipped by dispatch
system.cpu0.iew.iewDispStoreInsts            99349414                       # Number of dispatched store instructions
system.cpu0.iew.iewDispatchedInsts          707929708                       # Number of instructions dispatched to IQ
system.cpu0.iew.iewExecLoadInsts            221439179                       # Number of load instructions executed
system.cpu0.iew.iewExecSquashedInsts          3694574                       # Number of squashed instructions skipped in execute
system.cpu0.iew.iewExecutedInsts            700224296                       # Number of executed instructions
system.cpu0.iew.iewIQFullEvents                811353                       # Number of times the IQ has become full, causing a stall
system.cpu0.iew.iewIdleCycles                       0                       # Number of cycles IEW is idle
system.cpu0.iew.iewLSQFullEvents              9803549                       # Number of times the LSQ has become full, causing a stall
system.cpu0.iew.iewSquashCycles               7729840                       # Number of cycles IEW is squashing
system.cpu0.iew.iewUnblockCycles             12066789                       # Number of cycles IEW is unblocking
system.cpu0.iew.lsq.thread0.blockedLoads            0                       # Number of blocked loads due to partial load-store forwarding
system.cpu0.iew.lsq.thread0.cacheBlocked      1056507                       # Number of times an access to memory failed due to the cache being blocked
system.cpu0.iew.lsq.thread0.forwLoads        15220438                       # Number of loads that had data forwarded from stores
system.cpu0.iew.lsq.thread0.ignoredResponses         9602                       # Number of memory responses ignored because the instruction is squashed
system.cpu0.iew.lsq.thread0.invAddrLoads            0                       # Number of loads ignored due to an invalid address
system.cpu0.iew.lsq.thread0.invAddrSwpfs            0                       # Number of software prefetches ignored due to an invalid address
system.cpu0.iew.lsq.thread0.memOrderViolation         9157                       # Number of memory ordering violations
system.cpu0.iew.lsq.thread0.rescheduledLoads      3231342                       # Number of loads that were rescheduled
system.cpu0.iew.lsq.thread0.squashedLoads     28607695                       # Number of loads squashed
system.cpu0.iew.lsq.thread0.squashedStores     19930988                       # Number of stores squashed
system.cpu0.iew.memOrderViolationEvents          9157                       # Number of memory order violations
system.cpu0.iew.predictedNotTakenIncorrect       688325                       # Number of branches that were predicted not taken incorrectly
system.cpu0.iew.predictedTakenIncorrect       7105633                       # Number of branches that were predicted taken incorrectly
system.cpu0.iew.wb_consumers                303974155                       # num instructions consuming a value
system.cpu0.iew.wb_count                    690538748                       # cumulative count of insts written-back
system.cpu0.iew.wb_fanout                    0.842479                       # average fanout of values written-back
system.cpu0.iew.wb_producers                256091835                       # num instructions producing a value
system.cpu0.iew.wb_rate                      0.496766                       # insts written-back per cycle
system.cpu0.iew.wb_sent                     690608735                       # cumulative count of insts sent to commit
system.cpu0.int_regfile_reads               862909037                       # number of integer regfile reads
system.cpu0.int_regfile_writes              440244196                       # number of integer regfile writes
system.cpu0.ipc                              0.448657                       # IPC: Instructions Per Cycle
system.cpu0.ipc_total                        0.448657                       # IPC: Total IPC of All Threads
system.cpu0.iq.FU_type_0::No_OpClass          2038456      0.29%      0.29% # Type of FU issued
system.cpu0.iq.FU_type_0::IntAlu            376529593     53.49%     53.78% # Type of FU issued
system.cpu0.iq.FU_type_0::IntMult             4405157      0.63%     54.41% # Type of FU issued
system.cpu0.iq.FU_type_0::IntDiv              1542586      0.22%     54.63% # Type of FU issued
system.cpu0.iq.FU_type_0::FloatAdd                  0      0.00%     54.63% # Type of FU issued
system.cpu0.iq.FU_type_0::FloatCmp                  4      0.00%     54.63% # Type of FU issued
system.cpu0.iq.FU_type_0::FloatCvt                 12      0.00%     54.63% # Type of FU issued
system.cpu0.iq.FU_type_0::FloatMult                 0      0.00%     54.63% # Type of FU issued
system.cpu0.iq.FU_type_0::FloatMultAcc              0      0.00%     54.63% # Type of FU issued
system.cpu0.iq.FU_type_0::FloatDiv                  2      0.00%     54.63% # Type of FU issued
system.cpu0.iq.FU_type_0::FloatMisc                 4      0.00%     54.63% # Type of FU issued
system.cpu0.iq.FU_type_0::FloatSqrt                 0      0.00%     54.63% # Type of FU issued
system.cpu0.iq.FU_type_0::SimdAdd                   0      0.00%     54.63% # Type of FU issued
system.cpu0.iq.FU_type_0::SimdAddAcc                0      0.00%     54.63% # Type of FU issued
system.cpu0.iq.FU_type_0::SimdAlu                   0      0.00%     54.63% # Type of FU issued
system.cpu0.iq.FU_type_0::SimdCmp                   0      0.00%     54.63% # Type of FU issued
system.cpu0.iq.FU_type_0::SimdCvt                   0      0.00%     54.63% # Type of FU issued
system.cpu0.iq.FU_type_0::SimdMisc                  0      0.00%     54.63% # Type of FU issued
system.cpu0.iq.FU_type_0::SimdMult                  0      0.00%     54.63% # Type of FU issued
system.cpu0.iq.FU_type_0::SimdMultAcc               0      0.00%     54.63% # Type of FU issued
system.cpu0.iq.FU_type_0::SimdShift                 0      0.00%     54.63% # Type of FU issued
system.cpu0.iq.FU_type_0::SimdShiftAcc              0      0.00%     54.63% # Type of FU issued
system.cpu0.iq.FU_type_0::SimdDiv                   0      0.00%     54.63% # Type of FU issued
system.cpu0.iq.FU_type_0::SimdSqrt                  0      0.00%     54.63% # Type of FU issued
system.cpu0.iq.FU_type_0::SimdFloatAdd              0      0.00%     54.63% # Type of FU issued
system.cpu0.iq.FU_type_0::SimdFloatAlu              0      0.00%     54.63% # Type of FU issued
system.cpu0.iq.FU_type_0::SimdFloatCmp              0      0.00%     54.63% # Type of FU issued
system.cpu0.iq.FU_type_0::SimdFloatCvt              0      0.00%     54.63% # Type of FU issued
system.cpu0.iq.FU_type_0::SimdFloatDiv              0      0.00%     54.63% # Type of FU issued
system.cpu0.iq.FU_type_0::SimdFloatMisc             0      0.00%     54.63% # Type of FU issued
system.cpu0.iq.FU_type_0::SimdFloatMult             0      0.00%     54.63% # Type of FU issued
system.cpu0.iq.FU_type_0::SimdFloatMultAcc            0      0.00%     54.63% # Type of FU issued
system.cpu0.iq.FU_type_0::SimdFloatSqrt             0      0.00%     54.63% # Type of FU issued
system.cpu0.iq.FU_type_0::SimdReduceAdd             0      0.00%     54.63% # Type of FU issued
system.cpu0.iq.FU_type_0::SimdReduceAlu             0      0.00%     54.63% # Type of FU issued
system.cpu0.iq.FU_type_0::SimdReduceCmp             0      0.00%     54.63% # Type of FU issued
system.cpu0.iq.FU_type_0::SimdFloatReduceAdd            0      0.00%     54.63% # Type of FU issued
system.cpu0.iq.FU_type_0::SimdFloatReduceCmp            0      0.00%     54.63% # Type of FU issued
system.cpu0.iq.FU_type_0::SimdAes                   0      0.00%     54.63% # Type of FU issued
system.cpu0.iq.FU_type_0::SimdAesMix                0      0.00%     54.63% # Type of FU issued
system.cpu0.iq.FU_type_0::SimdSha1Hash              0      0.00%     54.63% # Type of FU issued
system.cpu0.iq.FU_type_0::SimdSha1Hash2             0      0.00%     54.63% # Type of FU issued
system.cpu0.iq.FU_type_0::SimdSha256Hash            0      0.00%     54.63% # Type of FU issued
system.cpu0.iq.FU_type_0::SimdSha256Hash2            0      0.00%     54.63% # Type of FU issued
system.cpu0.iq.FU_type_0::SimdShaSigma2             0      0.00%     54.63% # Type of FU issued
system.cpu0.iq.FU_type_0::SimdShaSigma3             0      0.00%     54.63% # Type of FU issued
system.cpu0.iq.FU_type_0::SimdPredAlu               0      0.00%     54.63% # Type of FU issued
system.cpu0.iq.FU_type_0::MemRead           224020434     31.82%     86.45% # Type of FU issued
system.cpu0.iq.FU_type_0::MemWrite           95382594     13.55%    100.00% # Type of FU issued
system.cpu0.iq.FU_type_0::FloatMemRead              9      0.00%    100.00% # Type of FU issued
system.cpu0.iq.FU_type_0::FloatMemWrite            20      0.00%    100.00% # Type of FU issued
system.cpu0.iq.FU_type_0::IprAccess                 0      0.00%    100.00% # Type of FU issued
system.cpu0.iq.FU_type_0::InstPrefetch              0      0.00%    100.00% # Type of FU issued
system.cpu0.iq.FU_type_0::total             703918871                       # Type of FU issued
system.cpu0.iq.fp_alu_accesses                     55                       # Number of floating point alu accesses
system.cpu0.iq.fp_inst_queue_reads                106                       # Number of floating instruction queue reads
system.cpu0.iq.fp_inst_queue_wakeup_accesses           51                       # Number of floating instruction queue wakeup accesses
system.cpu0.iq.fp_inst_queue_writes                52                       # Number of floating instruction queue writes
system.cpu0.iq.fu_busy_cnt                    3080342                       # FU busy when requested
system.cpu0.iq.fu_busy_rate                  0.004376                       # FU busy rate (busy events/executed inst)
system.cpu0.iq.fu_full::No_OpClass                  0      0.00%      0.00% # attempts to use FU when none available
system.cpu0.iq.fu_full::IntAlu                 509634     16.54%     16.54% # attempts to use FU when none available
system.cpu0.iq.fu_full::IntMult                    58      0.00%     16.55% # attempts to use FU when none available
system.cpu0.iq.fu_full::IntDiv                 550832     17.88%     34.43% # attempts to use FU when none available
system.cpu0.iq.fu_full::FloatAdd                    0      0.00%     34.43% # attempts to use FU when none available
system.cpu0.iq.fu_full::FloatCmp                    0      0.00%     34.43% # attempts to use FU when none available
system.cpu0.iq.fu_full::FloatCvt                    0      0.00%     34.43% # attempts to use FU when none available
system.cpu0.iq.fu_full::FloatMult                   0      0.00%     34.43% # attempts to use FU when none available
system.cpu0.iq.fu_full::FloatMultAcc                0      0.00%     34.43% # attempts to use FU when none available
system.cpu0.iq.fu_full::FloatDiv                    0      0.00%     34.43% # attempts to use FU when none available
system.cpu0.iq.fu_full::FloatMisc                   0      0.00%     34.43% # attempts to use FU when none available
system.cpu0.iq.fu_full::FloatSqrt                   0      0.00%     34.43% # attempts to use FU when none available
system.cpu0.iq.fu_full::SimdAdd                     0      0.00%     34.43% # attempts to use FU when none available
system.cpu0.iq.fu_full::SimdAddAcc                  0      0.00%     34.43% # attempts to use FU when none available
system.cpu0.iq.fu_full::SimdAlu                     0      0.00%     34.43% # attempts to use FU when none available
system.cpu0.iq.fu_full::SimdCmp                     0      0.00%     34.43% # attempts to use FU when none available
system.cpu0.iq.fu_full::SimdCvt                     0      0.00%     34.43% # attempts to use FU when none available
system.cpu0.iq.fu_full::SimdMisc                    0      0.00%     34.43% # attempts to use FU when none available
system.cpu0.iq.fu_full::SimdMult                    0      0.00%     34.43% # attempts to use FU when none available
system.cpu0.iq.fu_full::SimdMultAcc                 0      0.00%     34.43% # attempts to use FU when none available
system.cpu0.iq.fu_full::SimdShift                   0      0.00%     34.43% # attempts to use FU when none available
system.cpu0.iq.fu_full::SimdShiftAcc                0      0.00%     34.43% # attempts to use FU when none available
system.cpu0.iq.fu_full::SimdDiv                     0      0.00%     34.43% # attempts to use FU when none available
system.cpu0.iq.fu_full::SimdSqrt                    0      0.00%     34.43% # attempts to use FU when none available
system.cpu0.iq.fu_full::SimdFloatAdd                0      0.00%     34.43% # attempts to use FU when none available
system.cpu0.iq.fu_full::SimdFloatAlu                0      0.00%     34.43% # attempts to use FU when none available
system.cpu0.iq.fu_full::SimdFloatCmp                0      0.00%     34.43% # attempts to use FU when none available
system.cpu0.iq.fu_full::SimdFloatCvt                0      0.00%     34.43% # attempts to use FU when none available
system.cpu0.iq.fu_full::SimdFloatDiv                0      0.00%     34.43% # attempts to use FU when none available
system.cpu0.iq.fu_full::SimdFloatMisc               0      0.00%     34.43% # attempts to use FU when none available
system.cpu0.iq.fu_full::SimdFloatMult               0      0.00%     34.43% # attempts to use FU when none available
system.cpu0.iq.fu_full::SimdFloatMultAcc            0      0.00%     34.43% # attempts to use FU when none available
system.cpu0.iq.fu_full::SimdFloatSqrt               0      0.00%     34.43% # attempts to use FU when none available
system.cpu0.iq.fu_full::SimdReduceAdd               0      0.00%     34.43% # attempts to use FU when none available
system.cpu0.iq.fu_full::SimdReduceAlu               0      0.00%     34.43% # attempts to use FU when none available
system.cpu0.iq.fu_full::SimdReduceCmp               0      0.00%     34.43% # attempts to use FU when none available
system.cpu0.iq.fu_full::SimdFloatReduceAdd            0      0.00%     34.43% # attempts to use FU when none available
system.cpu0.iq.fu_full::SimdFloatReduceCmp            0      0.00%     34.43% # attempts to use FU when none available
system.cpu0.iq.fu_full::SimdAes                     0      0.00%     34.43% # attempts to use FU when none available
system.cpu0.iq.fu_full::SimdAesMix                  0      0.00%     34.43% # attempts to use FU when none available
system.cpu0.iq.fu_full::SimdSha1Hash                0      0.00%     34.43% # attempts to use FU when none available
system.cpu0.iq.fu_full::SimdSha1Hash2               0      0.00%     34.43% # attempts to use FU when none available
system.cpu0.iq.fu_full::SimdSha256Hash              0      0.00%     34.43% # attempts to use FU when none available
system.cpu0.iq.fu_full::SimdSha256Hash2             0      0.00%     34.43% # attempts to use FU when none available
system.cpu0.iq.fu_full::SimdShaSigma2               0      0.00%     34.43% # attempts to use FU when none available
system.cpu0.iq.fu_full::SimdShaSigma3               0      0.00%     34.43% # attempts to use FU when none available
system.cpu0.iq.fu_full::SimdPredAlu                 0      0.00%     34.43% # attempts to use FU when none available
system.cpu0.iq.fu_full::MemRead               1780495     57.80%     92.23% # attempts to use FU when none available
system.cpu0.iq.fu_full::MemWrite               239319      7.77%    100.00% # attempts to use FU when none available
system.cpu0.iq.fu_full::FloatMemRead                0      0.00%    100.00% # attempts to use FU when none available
system.cpu0.iq.fu_full::FloatMemWrite               4      0.00%    100.00% # attempts to use FU when none available
system.cpu0.iq.fu_full::IprAccess                   0      0.00%    100.00% # attempts to use FU when none available
system.cpu0.iq.fu_full::InstPrefetch                0      0.00%    100.00% # attempts to use FU when none available
system.cpu0.iq.int_alu_accesses             704960702                       # Number of integer alu accesses
system.cpu0.iq.int_inst_queue_reads        2595600541                       # Number of integer instruction queue reads
system.cpu0.iq.int_inst_queue_wakeup_accesses    690538697                       # Number of integer instruction queue wakeup accesses
system.cpu0.iq.int_inst_queue_writes        791183772                       # Number of integer instruction queue writes
system.cpu0.iq.iqInstsAdded                 704870653                       # Number of instructions added to the IQ (excludes non-spec)
system.cpu0.iq.iqInstsIssued                703918871                       # Number of instructions issued
system.cpu0.iq.iqNonSpecInstsAdded            3059055                       # Number of non-speculative instructions added to the IQ
system.cpu0.iq.iqSquashedInstsExamined       83245590                       # Number of squashed instructions iterated over during squash; mainly for profiling
system.cpu0.iq.iqSquashedInstsIssued           219953                       # Number of squashed instructions issued
system.cpu0.iq.iqSquashedNonSpecRemoved           534                       # Number of squashed non-spec instructions that were removed
system.cpu0.iq.iqSquashedOperandsExamined     22300563                       # Number of squashed operands that are examined and possibly removed from graph
system.cpu0.iq.issued_per_cycle::samples   1184462611                       # Number of insts issued each cycle
system.cpu0.iq.issued_per_cycle::mean        0.594294                       # Number of insts issued each cycle
system.cpu0.iq.issued_per_cycle::stdev       0.840566                       # Number of insts issued each cycle
system.cpu0.iq.issued_per_cycle::underflows            0      0.00%      0.00% # Number of insts issued each cycle
system.cpu0.iq.issued_per_cycle::0          680545034     57.46%     57.46% # Number of insts issued each cycle
system.cpu0.iq.issued_per_cycle::1          352031665     29.72%     87.18% # Number of insts issued each cycle
system.cpu0.iq.issued_per_cycle::2          121144725     10.23%     97.40% # Number of insts issued each cycle
system.cpu0.iq.issued_per_cycle::3           20073778      1.69%     99.10% # Number of insts issued each cycle
system.cpu0.iq.issued_per_cycle::4            6751991      0.57%     99.67% # Number of insts issued each cycle
system.cpu0.iq.issued_per_cycle::5            1674129      0.14%     99.81% # Number of insts issued each cycle
system.cpu0.iq.issued_per_cycle::6            1801857      0.15%     99.96% # Number of insts issued each cycle
system.cpu0.iq.issued_per_cycle::7             328785      0.03%     99.99% # Number of insts issued each cycle
system.cpu0.iq.issued_per_cycle::8             110647      0.01%    100.00% # Number of insts issued each cycle
system.cpu0.iq.issued_per_cycle::overflows            0      0.00%    100.00% # Number of insts issued each cycle
system.cpu0.iq.issued_per_cycle::min_value            0                       # Number of insts issued each cycle
system.cpu0.iq.issued_per_cycle::max_value            8                       # Number of insts issued each cycle
system.cpu0.iq.issued_per_cycle::total     1184462611                       # Number of insts issued each cycle
system.cpu0.iq.rate                          0.506392                       # Inst issue rate
system.cpu0.iq.vec_alu_accesses                     0                       # Number of vector alu accesses
system.cpu0.iq.vec_inst_queue_reads                 0                       # Number of vector instruction queue reads
system.cpu0.iq.vec_inst_queue_wakeup_accesses            0                       # Number of vector instruction queue wakeup accesses
system.cpu0.iq.vec_inst_queue_writes                0                       # Number of vector instruction queue writes
system.cpu0.itb.accesses                            0                       # DTB accesses
system.cpu0.itb.hits                                0                       # DTB hits
system.cpu0.itb.misses                              0                       # DTB misses
system.cpu0.itb.read_accesses                       0                       # DTB read accesses
system.cpu0.itb.read_hits                           0                       # DTB read hits
system.cpu0.itb.read_misses                         0                       # DTB read misses
system.cpu0.itb.write_accesses                      0                       # DTB write accesses
system.cpu0.itb.write_hits                          0                       # DTB write hits
system.cpu0.itb.write_misses                        0                       # DTB write misses
system.cpu0.memDep0.conflictingLoads         11457693                       # Number of conflicting loads.
system.cpu0.memDep0.conflictingStores         7227192                       # Number of conflicting stores.
system.cpu0.memDep0.insertedLoads           218767209                       # Number of loads inserted to the mem dependence unit.
system.cpu0.memDep0.insertedStores           99349414                       # Number of stores inserted to the mem dependence unit.
system.cpu0.misc_regfile_reads                    885                       # number of misc regfile reads
system.cpu0.misc_regfile_writes                    22                       # number of misc regfile writes
system.cpu0.numCycles                      1390068285                       # number of cpu cycles simulated
system.cpu0.numWorkItemsCompleted                   0                       # number of work items this cpu completed
system.cpu0.numWorkItemsStarted                     0                       # number of work items this cpu started
system.cpu0.quiesceCycles                     9954441                       # Total number of cycles that CPU has spent quiesced or waiting for an interrupt
system.cpu0.rename.BlockCycles              203384597                       # Number of cycles rename is blocking
system.cpu0.rename.CommittedMaps            399066381                       # Number of HB maps that are committed
system.cpu0.rename.IQFullEvents               7642949                       # Number of times rename has blocked due to IQ full
system.cpu0.rename.IdleCycles               433078735                       # Number of cycles rename is idle
system.cpu0.rename.LQFullEvents              12840608                       # Number of times rename has blocked due to LQ full
system.cpu0.rename.ROBFullEvents                11139                       # Number of times rename has blocked due to ROB full
system.cpu0.rename.RenameLookups            892103149                       # Number of register rename lookups that rename has made
system.cpu0.rename.RenamedInsts             721250607                       # Number of instructions processed by rename
system.cpu0.rename.RenamedOperands          462236915                       # Number of destination operands rename has renamed
system.cpu0.rename.RunCycles                502405171                       # Number of cycles rename is running
system.cpu0.rename.SQFullEvents              16596653                       # Number of times rename has blocked due to SQ full
system.cpu0.rename.SquashCycles               7729840                       # Number of cycles rename is squashing
system.cpu0.rename.UnblockCycles             37771085                       # Number of cycles rename is unblocking
system.cpu0.rename.UndoneMaps                63170466                       # Number of HB maps that are undone due to squashing
system.cpu0.rename.fp_rename_lookups               44                       # Number of floating rename lookups
system.cpu0.rename.int_rename_lookups       892103105                       # Number of integer rename lookups
system.cpu0.rename.serializeStallCycles         93183                       # count of cycles rename stalled for serializing inst
system.cpu0.rename.serializingInsts              2875                       # count of serializing insts renamed
system.cpu0.rename.skidInsts                 18429997                       # count of insts added to the skid buffer
system.cpu0.rename.tempSerializingInsts          2864                       # count of temporary serializing insts renamed
system.cpu0.rob.rob_reads                  1856069643                       # The number of ROB reads
system.cpu0.rob.rob_writes                 1432572844                       # The number of ROB writes
system.cpu0.timesIdled                       13163050                       # Number of times that the entire CPU went into an idle state and unscheduled itself
system.cpu0.workload.numSyscalls                  852                       # Number of system calls
system.cpu1.branchPred.BTBCorrect                   0                       # Number of correct BTB predictions (this stat may not work properly.
system.cpu1.branchPred.BTBHitPct            73.688891                       # BTB Hit Percentage
system.cpu1.branchPred.BTBHits                6840088                       # Number of BTB hits
system.cpu1.branchPred.BTBLookups             9282387                       # Number of BTB lookups
system.cpu1.branchPred.RASInCorrect                 0                       # Number of incorrect RAS predictions.
system.cpu1.branchPred.condIncorrect           760082                       # Number of conditional branches incorrect
system.cpu1.branchPred.condPredicted         10409102                       # Number of conditional branches predicted
system.cpu1.branchPred.indirectHits            763793                       # Number of indirect target hits.
system.cpu1.branchPred.indirectLookups         801693                       # Number of indirect predictor lookups.
system.cpu1.branchPred.indirectMisses           37900                       # Number of indirect misses.
system.cpu1.branchPred.lookups               12570049                       # Number of BP lookups
system.cpu1.branchPred.usedRAS                      0                       # Number of times the RAS was used to get a target.
system.cpu1.branchPredindirectMispredicted        10102                       # Number of mispredicted indirect branches.
system.cpu1.commit.amos                       1017938                       # Number of atomic instructions committed
system.cpu1.commit.branchMispredicts           449357                       # The number of times a branch was mispredicted
system.cpu1.commit.branches                  10114937                       # Number of branches committed
system.cpu1.commit.bw_lim_events              2717203                       # number cycles where commit BW limit reached
system.cpu1.commit.commitNonSpecStalls        3054481                       # The number of times commit has been forced to stall to communicate backwards
system.cpu1.commit.commitSquashedInsts        6778020                       # The number of squashed insts skipped by commit
system.cpu1.commit.committedInsts            57392534                       # Number of instructions committed
system.cpu1.commit.committedOps              58410646                       # Number of ops (including micro ops) committed
system.cpu1.commit.committed_per_cycle::samples    243021227                       # Number of insts commited each cycle
system.cpu1.commit.committed_per_cycle::mean     0.240352                       # Number of insts commited each cycle
system.cpu1.commit.committed_per_cycle::stdev     1.052981                       # Number of insts commited each cycle
system.cpu1.commit.committed_per_cycle::underflows            0      0.00%      0.00% # Number of insts commited each cycle
system.cpu1.commit.committed_per_cycle::0    222084213     91.38%     91.38% # Number of insts commited each cycle
system.cpu1.commit.committed_per_cycle::1      9635526      3.96%     95.35% # Number of insts commited each cycle
system.cpu1.commit.committed_per_cycle::2      3741048      1.54%     96.89% # Number of insts commited each cycle
system.cpu1.commit.committed_per_cycle::3      2020919      0.83%     97.72% # Number of insts commited each cycle
system.cpu1.commit.committed_per_cycle::4      1368289      0.56%     98.28% # Number of insts commited each cycle
system.cpu1.commit.committed_per_cycle::5       863800      0.36%     98.64% # Number of insts commited each cycle
system.cpu1.commit.committed_per_cycle::6       431116      0.18%     98.82% # Number of insts commited each cycle
system.cpu1.commit.committed_per_cycle::7       159113      0.07%     98.88% # Number of insts commited each cycle
system.cpu1.commit.committed_per_cycle::8      2717203      1.12%    100.00% # Number of insts commited each cycle
system.cpu1.commit.committed_per_cycle::overflows            0      0.00%    100.00% # Number of insts commited each cycle
system.cpu1.commit.committed_per_cycle::min_value            0                       # Number of insts commited each cycle
system.cpu1.commit.committed_per_cycle::max_value            8                       # Number of insts commited each cycle
system.cpu1.commit.committed_per_cycle::total    243021227                       # Number of insts commited each cycle
system.cpu1.commit.fp_insts                        12                       # Number of committed floating point instructions.
system.cpu1.commit.function_calls             1443021                       # Number of function calls committed.
system.cpu1.commit.int_insts                 55974714                       # Number of committed integer instructions.
system.cpu1.commit.loads                     14461353                       # Number of loads committed
system.cpu1.commit.membars                    2035998                       # Number of memory barriers committed
system.cpu1.commit.op_class_0::No_OpClass      2035998      3.49%      3.49% # Class of committed instruction
system.cpu1.commit.op_class_0::IntAlu        34548342     59.15%     62.63% # Class of committed instruction
system.cpu1.commit.op_class_0::IntMult         248003      0.42%     63.06% # Class of committed instruction
system.cpu1.commit.op_class_0::IntDiv          493477      0.84%     63.90% # Class of committed instruction
system.cpu1.commit.op_class_0::FloatAdd             0      0.00%     63.90% # Class of committed instruction
system.cpu1.commit.op_class_0::FloatCmp             0      0.00%     63.90% # Class of committed instruction
system.cpu1.commit.op_class_0::FloatCvt             0      0.00%     63.90% # Class of committed instruction
system.cpu1.commit.op_class_0::FloatMult            0      0.00%     63.90% # Class of committed instruction
system.cpu1.commit.op_class_0::FloatMultAcc            0      0.00%     63.90% # Class of committed instruction
system.cpu1.commit.op_class_0::FloatDiv             0      0.00%     63.90% # Class of committed instruction
system.cpu1.commit.op_class_0::FloatMisc            0      0.00%     63.90% # Class of committed instruction
system.cpu1.commit.op_class_0::FloatSqrt            0      0.00%     63.90% # Class of committed instruction
system.cpu1.commit.op_class_0::SimdAdd              0      0.00%     63.90% # Class of committed instruction
system.cpu1.commit.op_class_0::SimdAddAcc            0      0.00%     63.90% # Class of committed instruction
system.cpu1.commit.op_class_0::SimdAlu              0      0.00%     63.90% # Class of committed instruction
system.cpu1.commit.op_class_0::SimdCmp              0      0.00%     63.90% # Class of committed instruction
system.cpu1.commit.op_class_0::SimdCvt              0      0.00%     63.90% # Class of committed instruction
system.cpu1.commit.op_class_0::SimdMisc             0      0.00%     63.90% # Class of committed instruction
system.cpu1.commit.op_class_0::SimdMult             0      0.00%     63.90% # Class of committed instruction
system.cpu1.commit.op_class_0::SimdMultAcc            0      0.00%     63.90% # Class of committed instruction
system.cpu1.commit.op_class_0::SimdShift            0      0.00%     63.90% # Class of committed instruction
system.cpu1.commit.op_class_0::SimdShiftAcc            0      0.00%     63.90% # Class of committed instruction
system.cpu1.commit.op_class_0::SimdDiv              0      0.00%     63.90% # Class of committed instruction
system.cpu1.commit.op_class_0::SimdSqrt             0      0.00%     63.90% # Class of committed instruction
system.cpu1.commit.op_class_0::SimdFloatAdd            0      0.00%     63.90% # Class of committed instruction
system.cpu1.commit.op_class_0::SimdFloatAlu            0      0.00%     63.90% # Class of committed instruction
system.cpu1.commit.op_class_0::SimdFloatCmp            0      0.00%     63.90% # Class of committed instruction
system.cpu1.commit.op_class_0::SimdFloatCvt            0      0.00%     63.90% # Class of committed instruction
system.cpu1.commit.op_class_0::SimdFloatDiv            0      0.00%     63.90% # Class of committed instruction
system.cpu1.commit.op_class_0::SimdFloatMisc            0      0.00%     63.90% # Class of committed instruction
system.cpu1.commit.op_class_0::SimdFloatMult            0      0.00%     63.90% # Class of committed instruction
system.cpu1.commit.op_class_0::SimdFloatMultAcc            0      0.00%     63.90% # Class of committed instruction
system.cpu1.commit.op_class_0::SimdFloatSqrt            0      0.00%     63.90% # Class of committed instruction
system.cpu1.commit.op_class_0::SimdReduceAdd            0      0.00%     63.90% # Class of committed instruction
system.cpu1.commit.op_class_0::SimdReduceAlu            0      0.00%     63.90% # Class of committed instruction
system.cpu1.commit.op_class_0::SimdReduceCmp            0      0.00%     63.90% # Class of committed instruction
system.cpu1.commit.op_class_0::SimdFloatReduceAdd            0      0.00%     63.90% # Class of committed instruction
system.cpu1.commit.op_class_0::SimdFloatReduceCmp            0      0.00%     63.90% # Class of committed instruction
system.cpu1.commit.op_class_0::SimdAes              0      0.00%     63.90% # Class of committed instruction
system.cpu1.commit.op_class_0::SimdAesMix            0      0.00%     63.90% # Class of committed instruction
system.cpu1.commit.op_class_0::SimdSha1Hash            0      0.00%     63.90% # Class of committed instruction
system.cpu1.commit.op_class_0::SimdSha1Hash2            0      0.00%     63.90% # Class of committed instruction
system.cpu1.commit.op_class_0::SimdSha256Hash            0      0.00%     63.90% # Class of committed instruction
system.cpu1.commit.op_class_0::SimdSha256Hash2            0      0.00%     63.90% # Class of committed instruction
system.cpu1.commit.op_class_0::SimdShaSigma2            0      0.00%     63.90% # Class of committed instruction
system.cpu1.commit.op_class_0::SimdShaSigma3            0      0.00%     63.90% # Class of committed instruction
system.cpu1.commit.op_class_0::SimdPredAlu            0      0.00%     63.90% # Class of committed instruction
system.cpu1.commit.op_class_0::MemRead       15479291     26.50%     90.40% # Class of committed instruction
system.cpu1.commit.op_class_0::MemWrite       5605523      9.60%    100.00% # Class of committed instruction
system.cpu1.commit.op_class_0::FloatMemRead            0      0.00%    100.00% # Class of committed instruction
system.cpu1.commit.op_class_0::FloatMemWrite           12      0.00%    100.00% # Class of committed instruction
system.cpu1.commit.op_class_0::IprAccess            0      0.00%    100.00% # Class of committed instruction
system.cpu1.commit.op_class_0::InstPrefetch            0      0.00%    100.00% # Class of committed instruction
system.cpu1.commit.op_class_0::total         58410646                       # Class of committed instruction
system.cpu1.commit.refs                      21084826                       # Number of memory references committed
system.cpu1.commit.swp_count                        0                       # Number of s/w prefetches committed
system.cpu1.commit.vec_insts                        0                       # Number of committed Vector instructions.
system.cpu1.committedInsts                   57392534                       # Number of Instructions Simulated
system.cpu1.committedOps                     58410646                       # Number of Ops (including micro ops) Simulated
system.cpu1.cpi                              4.267722                       # CPI: Cycles Per Instruction
system.cpu1.cpi_total                        4.267722                       # CPI: Total CPI of All Threads
system.cpu1.decode.BlockedCycles            204119035                       # Number of cycles decode is blocked
system.cpu1.decode.BranchMispred               318184                       # Number of times decode detected a branch misprediction
system.cpu1.decode.BranchResolved             6358841                       # Number of times decode resolved a branch
system.cpu1.decode.DecodedInsts              67631325                       # Number of instructions handled by decode
system.cpu1.decode.IdleCycles                 8387180                       # Number of cycles decode is idle
system.cpu1.decode.RunCycles                 28504598                       # Number of cycles decode is running
system.cpu1.decode.SquashCycles                449687                       # Number of cycles decode is squashing
system.cpu1.decode.SquashedInsts               747547                       # Number of squashed instructions handled by decode
system.cpu1.decode.UnblockCycles              2707010                       # Number of cycles decode is unblocking
system.cpu1.dtb.accesses                            0                       # DTB accesses
system.cpu1.dtb.hits                                0                       # DTB hits
system.cpu1.dtb.misses                              0                       # DTB misses
system.cpu1.dtb.read_accesses                       0                       # DTB read accesses
system.cpu1.dtb.read_hits                           0                       # DTB read hits
system.cpu1.dtb.read_misses                         0                       # DTB read misses
system.cpu1.dtb.write_accesses                      0                       # DTB write accesses
system.cpu1.dtb.write_hits                          0                       # DTB write hits
system.cpu1.dtb.write_misses                        0                       # DTB write misses
system.cpu1.fetch.Branches                   12570049                       # Number of branches that fetch encountered
system.cpu1.fetch.CacheLines                  8827403                       # Number of cache lines fetched
system.cpu1.fetch.Cycles                    233534052                       # Number of cycles fetch has run and was not squashing or blocked
system.cpu1.fetch.IcacheSquashes               106919                       # Number of outstanding Icache misses that were squashed
system.cpu1.fetch.Insts                      70137856                       # Number of instructions fetch has processed
system.cpu1.fetch.MiscStallCycles                   1                       # Number of cycles fetch has spent waiting on interrupts, or bad addresses, or out of MSHRs
system.cpu1.fetch.SquashCycles                1520824                       # Number of cycles fetch has spent squashing
system.cpu1.fetch.branchRate                 0.051320                       # Number of branch fetches per cycle
system.cpu1.fetch.icacheStallCycles           9873045                       # Number of cycles fetch is stalled on an Icache miss
system.cpu1.fetch.predictedBranches           7603881                       # Number of branches that fetch has predicted taken
system.cpu1.fetch.rate                       0.286352                       # Number of inst fetches per cycle
system.cpu1.fetch.rateDist::samples         244167510                       # Number of instructions fetched each cycle (Total)
system.cpu1.fetch.rateDist::mean             0.291424                       # Number of instructions fetched each cycle (Total)
system.cpu1.fetch.rateDist::stdev            0.747938                       # Number of instructions fetched each cycle (Total)
system.cpu1.fetch.rateDist::underflows              0      0.00%      0.00% # Number of instructions fetched each cycle (Total)
system.cpu1.fetch.rateDist::0               199166138     81.57%     81.57% # Number of instructions fetched each cycle (Total)
system.cpu1.fetch.rateDist::1                29046213     11.90%     93.47% # Number of instructions fetched each cycle (Total)
system.cpu1.fetch.rateDist::2                10124405      4.15%     97.61% # Number of instructions fetched each cycle (Total)
system.cpu1.fetch.rateDist::3                 3365730      1.38%     98.99% # Number of instructions fetched each cycle (Total)
system.cpu1.fetch.rateDist::4                 1017837      0.42%     99.41% # Number of instructions fetched each cycle (Total)
system.cpu1.fetch.rateDist::5                  990846      0.41%     99.81% # Number of instructions fetched each cycle (Total)
system.cpu1.fetch.rateDist::6                  456099      0.19%    100.00% # Number of instructions fetched each cycle (Total)
system.cpu1.fetch.rateDist::7                      12      0.00%    100.00% # Number of instructions fetched each cycle (Total)
system.cpu1.fetch.rateDist::8                     230      0.00%    100.00% # Number of instructions fetched each cycle (Total)
system.cpu1.fetch.rateDist::overflows               0      0.00%    100.00% # Number of instructions fetched each cycle (Total)
system.cpu1.fetch.rateDist::min_value               0                       # Number of instructions fetched each cycle (Total)
system.cpu1.fetch.rateDist::max_value               8                       # Number of instructions fetched each cycle (Total)
system.cpu1.fetch.rateDist::total           244167510                       # Number of instructions fetched each cycle (Total)
system.cpu1.fp_regfile_reads                       12                       # number of floating regfile reads
system.cpu1.idleCycles                         767869                       # Total number of cycles that the CPU has spent unscheduled due to idling
system.cpu1.iew.branchMispredicts              487661                       # Number of branch mispredicts detected at execute
system.cpu1.iew.exec_branches                10992070                       # Number of branches executed
system.cpu1.iew.exec_nop                            0                       # number of nop insts executed
system.cpu1.iew.exec_rate                    0.256989                       # Inst execution rate
system.cpu1.iew.exec_refs                    22610660                       # number of memory reference insts executed
system.cpu1.iew.exec_stores                   6800038                       # Number of stores executed
system.cpu1.iew.exec_swp                            0                       # number of swp insts executed
system.cpu1.iew.iewBlockCycles              171714328                       # Number of cycles IEW is blocking
system.cpu1.iew.iewDispLoadInsts             15801669                       # Number of dispatched load instructions
system.cpu1.iew.iewDispNonSpecInsts           1018627                       # Number of dispatched non-speculative instructions
system.cpu1.iew.iewDispSquashedInsts           447933                       # Number of squashed instructions skipped by dispatch
system.cpu1.iew.iewDispStoreInsts             7038325                       # Number of dispatched store instructions
system.cpu1.iew.iewDispatchedInsts           65180048                       # Number of instructions dispatched to IQ
system.cpu1.iew.iewExecLoadInsts             15810622                       # Number of load instructions executed
system.cpu1.iew.iewExecSquashedInsts           395887                       # Number of squashed instructions skipped in execute
system.cpu1.iew.iewExecutedInsts             62945818                       # Number of executed instructions
system.cpu1.iew.iewIQFullEvents                728556                       # Number of times the IQ has become full, causing a stall
system.cpu1.iew.iewIdleCycles                       0                       # Number of cycles IEW is idle
system.cpu1.iew.iewLSQFullEvents              3244653                       # Number of times the LSQ has become full, causing a stall
system.cpu1.iew.iewSquashCycles                449687                       # Number of cycles IEW is squashing
system.cpu1.iew.iewUnblockCycles              5381939                       # Number of cycles IEW is unblocking
system.cpu1.iew.lsq.thread0.blockedLoads            0                       # Number of blocked loads due to partial load-store forwarding
system.cpu1.iew.lsq.thread0.cacheBlocked        43519                       # Number of times an access to memory failed due to the cache being blocked
system.cpu1.iew.lsq.thread0.forwLoads          871759                       # Number of loads that had data forwarded from stores
system.cpu1.iew.lsq.thread0.ignoredResponses         6449                       # Number of memory responses ignored because the instruction is squashed
system.cpu1.iew.lsq.thread0.invAddrLoads            0                       # Number of loads ignored due to an invalid address
system.cpu1.iew.lsq.thread0.invAddrSwpfs            0                       # Number of software prefetches ignored due to an invalid address
system.cpu1.iew.lsq.thread0.memOrderViolation          366                       # Number of memory ordering violations
system.cpu1.iew.lsq.thread0.rescheduledLoads           95                       # Number of loads that were rescheduled
system.cpu1.iew.lsq.thread0.squashedLoads      1340316                       # Number of loads squashed
system.cpu1.iew.lsq.thread0.squashedStores       414852                       # Number of stores squashed
system.cpu1.iew.memOrderViolationEvents           366                       # Number of memory order violations
system.cpu1.iew.predictedNotTakenIncorrect        77564                       # Number of branches that were predicted not taken incorrectly
system.cpu1.iew.predictedTakenIncorrect        410097                       # Number of branches that were predicted taken incorrectly
system.cpu1.iew.wb_consumers                 37463493                       # num instructions consuming a value
system.cpu1.iew.wb_count                     62374263                       # cumulative count of insts written-back
system.cpu1.iew.wb_fanout                    0.818108                       # average fanout of values written-back
system.cpu1.iew.wb_producers                 30649185                       # num instructions producing a value
system.cpu1.iew.wb_rate                      0.254656                       # insts written-back per cycle
system.cpu1.iew.wb_sent                      62408603                       # cumulative count of insts sent to commit
system.cpu1.int_regfile_reads                80252528                       # number of integer regfile reads
system.cpu1.int_regfile_writes               44342234                       # number of integer regfile writes
system.cpu1.ipc                              0.234317                       # IPC: Instructions Per Cycle
system.cpu1.ipc_total                        0.234317                       # IPC: Total IPC of All Threads
system.cpu1.iq.FU_type_0::No_OpClass          2036100      3.21%      3.21% # Type of FU issued
system.cpu1.iq.FU_type_0::IntAlu             37830023     59.72%     62.94% # Type of FU issued
system.cpu1.iq.FU_type_0::IntMult              248039      0.39%     63.33% # Type of FU issued
system.cpu1.iq.FU_type_0::IntDiv               493552      0.78%     64.11% # Type of FU issued
system.cpu1.iq.FU_type_0::FloatAdd                  0      0.00%     64.11% # Type of FU issued
system.cpu1.iq.FU_type_0::FloatCmp                  0      0.00%     64.11% # Type of FU issued
system.cpu1.iq.FU_type_0::FloatCvt                  0      0.00%     64.11% # Type of FU issued
system.cpu1.iq.FU_type_0::FloatMult                 0      0.00%     64.11% # Type of FU issued
system.cpu1.iq.FU_type_0::FloatMultAcc              0      0.00%     64.11% # Type of FU issued
system.cpu1.iq.FU_type_0::FloatDiv                  0      0.00%     64.11% # Type of FU issued
system.cpu1.iq.FU_type_0::FloatMisc                 0      0.00%     64.11% # Type of FU issued
system.cpu1.iq.FU_type_0::FloatSqrt                 0      0.00%     64.11% # Type of FU issued
system.cpu1.iq.FU_type_0::SimdAdd                   0      0.00%     64.11% # Type of FU issued
system.cpu1.iq.FU_type_0::SimdAddAcc                0      0.00%     64.11% # Type of FU issued
system.cpu1.iq.FU_type_0::SimdAlu                   0      0.00%     64.11% # Type of FU issued
system.cpu1.iq.FU_type_0::SimdCmp                   0      0.00%     64.11% # Type of FU issued
system.cpu1.iq.FU_type_0::SimdCvt                   0      0.00%     64.11% # Type of FU issued
system.cpu1.iq.FU_type_0::SimdMisc                  0      0.00%     64.11% # Type of FU issued
system.cpu1.iq.FU_type_0::SimdMult                  0      0.00%     64.11% # Type of FU issued
system.cpu1.iq.FU_type_0::SimdMultAcc               0      0.00%     64.11% # Type of FU issued
system.cpu1.iq.FU_type_0::SimdShift                 0      0.00%     64.11% # Type of FU issued
system.cpu1.iq.FU_type_0::SimdShiftAcc              0      0.00%     64.11% # Type of FU issued
system.cpu1.iq.FU_type_0::SimdDiv                   0      0.00%     64.11% # Type of FU issued
system.cpu1.iq.FU_type_0::SimdSqrt                  0      0.00%     64.11% # Type of FU issued
system.cpu1.iq.FU_type_0::SimdFloatAdd              0      0.00%     64.11% # Type of FU issued
system.cpu1.iq.FU_type_0::SimdFloatAlu              0      0.00%     64.11% # Type of FU issued
system.cpu1.iq.FU_type_0::SimdFloatCmp              0      0.00%     64.11% # Type of FU issued
system.cpu1.iq.FU_type_0::SimdFloatCvt              0      0.00%     64.11% # Type of FU issued
system.cpu1.iq.FU_type_0::SimdFloatDiv              0      0.00%     64.11% # Type of FU issued
system.cpu1.iq.FU_type_0::SimdFloatMisc             0      0.00%     64.11% # Type of FU issued
system.cpu1.iq.FU_type_0::SimdFloatMult             0      0.00%     64.11% # Type of FU issued
system.cpu1.iq.FU_type_0::SimdFloatMultAcc            0      0.00%     64.11% # Type of FU issued
system.cpu1.iq.FU_type_0::SimdFloatSqrt             0      0.00%     64.11% # Type of FU issued
system.cpu1.iq.FU_type_0::SimdReduceAdd             0      0.00%     64.11% # Type of FU issued
system.cpu1.iq.FU_type_0::SimdReduceAlu             0      0.00%     64.11% # Type of FU issued
system.cpu1.iq.FU_type_0::SimdReduceCmp             0      0.00%     64.11% # Type of FU issued
system.cpu1.iq.FU_type_0::SimdFloatReduceAdd            0      0.00%     64.11% # Type of FU issued
system.cpu1.iq.FU_type_0::SimdFloatReduceCmp            0      0.00%     64.11% # Type of FU issued
system.cpu1.iq.FU_type_0::SimdAes                   0      0.00%     64.11% # Type of FU issued
system.cpu1.iq.FU_type_0::SimdAesMix                0      0.00%     64.11% # Type of FU issued
system.cpu1.iq.FU_type_0::SimdSha1Hash              0      0.00%     64.11% # Type of FU issued
system.cpu1.iq.FU_type_0::SimdSha1Hash2             0      0.00%     64.11% # Type of FU issued
system.cpu1.iq.FU_type_0::SimdSha256Hash            0      0.00%     64.11% # Type of FU issued
system.cpu1.iq.FU_type_0::SimdSha256Hash2            0      0.00%     64.11% # Type of FU issued
system.cpu1.iq.FU_type_0::SimdShaSigma2             0      0.00%     64.11% # Type of FU issued
system.cpu1.iq.FU_type_0::SimdShaSigma3             0      0.00%     64.11% # Type of FU issued
system.cpu1.iq.FU_type_0::SimdPredAlu               0      0.00%     64.11% # Type of FU issued
system.cpu1.iq.FU_type_0::MemRead            16930154     26.73%     90.84% # Type of FU issued
system.cpu1.iq.FU_type_0::MemWrite            5803825      9.16%    100.00% # Type of FU issued
system.cpu1.iq.FU_type_0::FloatMemRead              0      0.00%    100.00% # Type of FU issued
system.cpu1.iq.FU_type_0::FloatMemWrite            12      0.00%    100.00% # Type of FU issued
system.cpu1.iq.FU_type_0::IprAccess                 0      0.00%    100.00% # Type of FU issued
system.cpu1.iq.FU_type_0::InstPrefetch              0      0.00%    100.00% # Type of FU issued
system.cpu1.iq.FU_type_0::total              63341705                       # Type of FU issued
system.cpu1.iq.fp_alu_accesses                     16                       # Number of floating point alu accesses
system.cpu1.iq.fp_inst_queue_reads                 28                       # Number of floating instruction queue reads
system.cpu1.iq.fp_inst_queue_wakeup_accesses           12                       # Number of floating instruction queue wakeup accesses
system.cpu1.iq.fp_inst_queue_writes                12                       # Number of floating instruction queue writes
system.cpu1.iq.fu_busy_cnt                    2128431                       # FU busy when requested
system.cpu1.iq.fu_busy_rate                  0.033602                       # FU busy rate (busy events/executed inst)
system.cpu1.iq.fu_full::No_OpClass                  0      0.00%      0.00% # attempts to use FU when none available
system.cpu1.iq.fu_full::IntAlu                 340871     16.02%     16.02% # attempts to use FU when none available
system.cpu1.iq.fu_full::IntMult                  6721      0.32%     16.33% # attempts to use FU when none available
system.cpu1.iq.fu_full::IntDiv                 532167     25.00%     41.33% # attempts to use FU when none available
system.cpu1.iq.fu_full::FloatAdd                    0      0.00%     41.33% # attempts to use FU when none available
system.cpu1.iq.fu_full::FloatCmp                    0      0.00%     41.33% # attempts to use FU when none available
system.cpu1.iq.fu_full::FloatCvt                    0      0.00%     41.33% # attempts to use FU when none available
system.cpu1.iq.fu_full::FloatMult                   0      0.00%     41.33% # attempts to use FU when none available
system.cpu1.iq.fu_full::FloatMultAcc                0      0.00%     41.33% # attempts to use FU when none available
system.cpu1.iq.fu_full::FloatDiv                    0      0.00%     41.33% # attempts to use FU when none available
system.cpu1.iq.fu_full::FloatMisc                   0      0.00%     41.33% # attempts to use FU when none available
system.cpu1.iq.fu_full::FloatSqrt                   0      0.00%     41.33% # attempts to use FU when none available
system.cpu1.iq.fu_full::SimdAdd                     0      0.00%     41.33% # attempts to use FU when none available
system.cpu1.iq.fu_full::SimdAddAcc                  0      0.00%     41.33% # attempts to use FU when none available
system.cpu1.iq.fu_full::SimdAlu                     0      0.00%     41.33% # attempts to use FU when none available
system.cpu1.iq.fu_full::SimdCmp                     0      0.00%     41.33% # attempts to use FU when none available
system.cpu1.iq.fu_full::SimdCvt                     0      0.00%     41.33% # attempts to use FU when none available
system.cpu1.iq.fu_full::SimdMisc                    0      0.00%     41.33% # attempts to use FU when none available
system.cpu1.iq.fu_full::SimdMult                    0      0.00%     41.33% # attempts to use FU when none available
system.cpu1.iq.fu_full::SimdMultAcc                 0      0.00%     41.33% # attempts to use FU when none available
system.cpu1.iq.fu_full::SimdShift                   0      0.00%     41.33% # attempts to use FU when none available
system.cpu1.iq.fu_full::SimdShiftAcc                0      0.00%     41.33% # attempts to use FU when none available
system.cpu1.iq.fu_full::SimdDiv                     0      0.00%     41.33% # attempts to use FU when none available
system.cpu1.iq.fu_full::SimdSqrt                    0      0.00%     41.33% # attempts to use FU when none available
system.cpu1.iq.fu_full::SimdFloatAdd                0      0.00%     41.33% # attempts to use FU when none available
system.cpu1.iq.fu_full::SimdFloatAlu                0      0.00%     41.33% # attempts to use FU when none available
system.cpu1.iq.fu_full::SimdFloatCmp                0      0.00%     41.33% # attempts to use FU when none available
system.cpu1.iq.fu_full::SimdFloatCvt                0      0.00%     41.33% # attempts to use FU when none available
system.cpu1.iq.fu_full::SimdFloatDiv                0      0.00%     41.33% # attempts to use FU when none available
system.cpu1.iq.fu_full::SimdFloatMisc               0      0.00%     41.33% # attempts to use FU when none available
system.cpu1.iq.fu_full::SimdFloatMult               0      0.00%     41.33% # attempts to use FU when none available
system.cpu1.iq.fu_full::SimdFloatMultAcc            0      0.00%     41.33% # attempts to use FU when none available
system.cpu1.iq.fu_full::SimdFloatSqrt               0      0.00%     41.33% # attempts to use FU when none available
system.cpu1.iq.fu_full::SimdReduceAdd               0      0.00%     41.33% # attempts to use FU when none available
system.cpu1.iq.fu_full::SimdReduceAlu               0      0.00%     41.33% # attempts to use FU when none available
system.cpu1.iq.fu_full::SimdReduceCmp               0      0.00%     41.33% # attempts to use FU when none available
system.cpu1.iq.fu_full::SimdFloatReduceAdd            0      0.00%     41.33% # attempts to use FU when none available
system.cpu1.iq.fu_full::SimdFloatReduceCmp            0      0.00%     41.33% # attempts to use FU when none available
system.cpu1.iq.fu_full::SimdAes                     0      0.00%     41.33% # attempts to use FU when none available
system.cpu1.iq.fu_full::SimdAesMix                  0      0.00%     41.33% # attempts to use FU when none available
system.cpu1.iq.fu_full::SimdSha1Hash                0      0.00%     41.33% # attempts to use FU when none available
system.cpu1.iq.fu_full::SimdSha1Hash2               0      0.00%     41.33% # attempts to use FU when none available
system.cpu1.iq.fu_full::SimdSha256Hash              0      0.00%     41.33% # attempts to use FU when none available
system.cpu1.iq.fu_full::SimdSha256Hash2             0      0.00%     41.33% # attempts to use FU when none available
system.cpu1.iq.fu_full::SimdShaSigma2               0      0.00%     41.33% # attempts to use FU when none available
system.cpu1.iq.fu_full::SimdShaSigma3               0      0.00%     41.33% # attempts to use FU when none available
system.cpu1.iq.fu_full::SimdPredAlu                 0      0.00%     41.33% # attempts to use FU when none available
system.cpu1.iq.fu_full::MemRead               1091016     51.26%     92.59% # attempts to use FU when none available
system.cpu1.iq.fu_full::MemWrite               157652      7.41%    100.00% # attempts to use FU when none available
system.cpu1.iq.fu_full::FloatMemRead                0      0.00%    100.00% # attempts to use FU when none available
[...]
system.cpu1.dcache.WriteReq_hits::.cpu1.data      6986085                       # number of WriteReq hits
system.cpu1.dcache.WriteReq_hits::total       6986085                       # number of WriteReq hits
system.cpu1.dcache.WriteReq_misses::.cpu1.data      2718306                       # number of WriteReq misses
system.cpu1.dcache.WriteReq_misses::total      2718306                       # number of WriteReq misses
system.cpu1.dcache.WriteReq_miss_latency::.cpu1.data 187965610446                       # number of WriteReq miss cycles
system.cpu1.dcache.WriteReq_miss_latency::total 187965610446                       # number of WriteReq miss cycles
system.cpu1.dcache.WriteReq_accesses::.cpu1.data      9704391                       # number of WriteReq accesses(hits+misses)
system.cpu1.dcache.WriteReq_accesses::total      9704391                       # number of WriteReq accesses(hits+misses)
system.cpu1.dcache.WriteReq_miss_rate::.cpu1.data     0.280111                       # miss rate for WriteReq accesses
system.cpu1.dcache.WriteReq_miss_rate::total     0.280111                       # miss rate for WriteReq accesses
system.cpu1.dcache.WriteReq_avg_miss_latency::.cpu1.data 69148.068851                       # average WriteReq miss latency
system.cpu1.dcache.WriteReq_avg_miss_latency::total 69148.068851                       # average WriteReq miss latency
system.cpu1.dcache.WriteReq_mshr_hits::.cpu1.data      1703918                       # number of WriteReq MSHR hits
system.cpu1.dcache.WriteReq_mshr_hits::total      1703918                       # number of WriteReq MSHR hits
system.cpu1.dcache.WriteReq_mshr_misses::.cpu1.data      1014388                       # number of WriteReq MSHR misses
system.cpu1.dcache.WriteReq_mshr_misses::total      1014388                       # number of WriteReq MSHR misses
system.cpu1.dcache.WriteReq_mshr_miss_latency::.cpu1.data  79332874179                       # number of WriteReq MSHR miss cycles
system.cpu1.dcache.WriteReq_mshr_miss_latency::total  79332874179                       # number of WriteReq MSHR miss cycles
system.cpu1.dcache.WriteReq_mshr_miss_rate::.cpu1.data     0.104529                       # mshr miss rate for WriteReq accesses
system.cpu1.dcache.WriteReq_mshr_miss_rate::total     0.104529                       # mshr miss rate for WriteReq accesses
system.cpu1.dcache.WriteReq_avg_mshr_miss_latency::.cpu1.data 78207.622901                       # average WriteReq mshr miss latency
system.cpu1.dcache.WriteReq_avg_mshr_miss_latency::total 78207.622901                       # average WriteReq mshr miss latency
system.cpu1.dcache.LoadLockedReq_hits::.cpu1.data       571557                       # number of LoadLockedReq hits
system.cpu1.dcache.LoadLockedReq_hits::total       571557                       # number of LoadLockedReq hits
system.cpu1.dcache.LoadLockedReq_misses::.cpu1.data        77244                       # number of LoadLockedReq misses
system.cpu1.dcache.LoadLockedReq_misses::total        77244                       # number of LoadLockedReq misses
system.cpu1.dcache.LoadLockedReq_miss_latency::.cpu1.data   3929957000                       # number of LoadLockedReq miss cycles
system.cpu1.dcache.LoadLockedReq_miss_latency::total   3929957000                       # number of LoadLockedReq miss cycles
system.cpu1.dcache.LoadLockedReq_accesses::.cpu1.data       648801                       # number of LoadLockedReq accesses(hits+misses)
system.cpu1.dcache.LoadLockedReq_accesses::total       648801                       # number of LoadLockedReq accesses(hits+misses)
system.cpu1.dcache.LoadLockedReq_miss_rate::.cpu1.data     0.119057                       # miss rate for LoadLockedReq accesses
system.cpu1.dcache.LoadLockedReq_miss_rate::total     0.119057                       # miss rate for LoadLockedReq accesses
system.cpu1.dcache.LoadLockedReq_avg_miss_latency::.cpu1.data 50877.181399                       # average LoadLockedReq miss latency
system.cpu1.dcache.LoadLockedReq_avg_miss_latency::total 50877.181399                       # average LoadLockedReq miss latency
system.cpu1.dcache.LoadLockedReq_mshr_hits::.cpu1.data        37568                       # number of LoadLockedReq MSHR hits
system.cpu1.dcache.LoadLockedReq_mshr_hits::total        37568                       # number of LoadLockedReq MSHR hits
system.cpu1.dcache.LoadLockedReq_mshr_misses::.cpu1.data        39676                       # number of LoadLockedReq MSHR misses
system.cpu1.dcache.LoadLockedReq_mshr_misses::total        39676                       # number of LoadLockedReq MSHR misses
system.cpu1.dcache.LoadLockedReq_mshr_miss_latency::.cpu1.data   2299744000                       # number of LoadLockedReq MSHR miss cycles
system.cpu1.dcache.LoadLockedReq_mshr_miss_latency::total   2299744000                       # number of LoadLockedReq MSHR miss cycles
system.cpu1.dcache.LoadLockedReq_mshr_miss_rate::.cpu1.data     0.061153                       # mshr miss rate for LoadLockedReq accesses
system.cpu1.dcache.LoadLockedReq_mshr_miss_rate::total     0.061153                       # mshr miss rate for LoadLockedReq accesses
system.cpu1.dcache.LoadLockedReq_avg_mshr_miss_latency::.cpu1.data 57963.101119                       # average LoadLockedReq mshr miss latency
system.cpu1.dcache.LoadLockedReq_avg_mshr_miss_latency::total 57963.101119                       # average LoadLockedReq mshr miss latency
system.cpu1.dcache.StoreCondReq_hits::.cpu1.data       553770                       # number of StoreCondReq hits
system.cpu1.dcache.StoreCondReq_hits::total       553770                       # number of StoreCondReq hits
system.cpu1.dcache.StoreCondReq_misses::.cpu1.data        47385                       # number of StoreCondReq misses
system.cpu1.dcache.StoreCondReq_misses::total        47385                       # number of StoreCondReq misses
system.cpu1.dcache.StoreCondReq_miss_latency::.cpu1.data    375864000                       # number of StoreCondReq miss cycles
system.cpu1.dcache.StoreCondReq_miss_latency::total    375864000                       # number of StoreCondReq miss cycles
system.cpu1.dcache.StoreCondReq_accesses::.cpu1.data       601155                       # number of StoreCondReq accesses(hits+misses)
system.cpu1.dcache.StoreCondReq_accesses::total       601155                       # number of StoreCondReq accesses(hits+misses)
system.cpu1.dcache.StoreCondReq_miss_rate::.cpu1.data     0.078823                       # miss rate for StoreCondReq accesses
system.cpu1.dcache.StoreCondReq_miss_rate::total     0.078823                       # miss rate for StoreCondReq accesses
system.cpu1.dcache.StoreCondReq_avg_miss_latency::.cpu1.data  7932.130421                       # average StoreCondReq miss latency
system.cpu1.dcache.StoreCondReq_avg_miss_latency::total  7932.130421                       # average StoreCondReq miss latency
system.cpu1.dcache.StoreCondReq_mshr_misses::.cpu1.data        47361                       # number of StoreCondReq MSHR misses
system.cpu1.dcache.StoreCondReq_mshr_misses::total        47361                       # number of StoreCondReq MSHR misses
system.cpu1.dcache.StoreCondReq_mshr_miss_latency::.cpu1.data    329328000                       # number of StoreCondReq MSHR miss cycles
system.cpu1.dcache.StoreCondReq_mshr_miss_latency::total    329328000                       # number of StoreCondReq MSHR miss cycles
system.cpu1.dcache.StoreCondReq_mshr_miss_rate::.cpu1.data     0.078783                       # mshr miss rate for StoreCondReq accesses
system.cpu1.dcache.StoreCondReq_mshr_miss_rate::total     0.078783                       # mshr miss rate for StoreCondReq accesses
system.cpu1.dcache.StoreCondReq_avg_mshr_miss_latency::.cpu1.data  6953.569393                       # average StoreCondReq mshr miss latency
system.cpu1.dcache.StoreCondReq_avg_mshr_miss_latency::total  6953.569393                       # average StoreCondReq mshr miss latency
system.cpu1.dcache.StoreCondFailReq_miss_latency::.cpu1.data     12691500                       # number of StoreCondFailReq miss cycles
system.cpu1.dcache.StoreCondFailReq_miss_latency::total     12691500                       # number of StoreCondFailReq miss cycles
system.cpu1.dcache.StoreCondFailReq_avg_miss_latency::.cpu1.data          inf                       # average StoreCondFailReq miss latency
system.cpu1.dcache.StoreCondFailReq_avg_miss_latency::total          inf                       # average StoreCondFailReq miss latency
system.cpu1.dcache.StoreCondFailReq_mshr_miss_latency::.cpu1.data     11866500                       # number of StoreCondFailReq MSHR miss cycles
system.cpu1.dcache.StoreCondFailReq_mshr_miss_latency::total     11866500                       # number of StoreCondFailReq MSHR miss cycles
system.cpu1.dcache.StoreCondFailReq_avg_mshr_miss_latency::.cpu1.data          inf                       # average StoreCondFailReq mshr miss latency
system.cpu1.dcache.StoreCondFailReq_avg_mshr_miss_latency::total          inf                       # average StoreCondFailReq mshr miss latency
system.cpu1.dcache.SwapReq_hits::.cpu1.data       117440                       # number of SwapReq hits
system.cpu1.dcache.SwapReq_hits::total         117440                       # number of SwapReq hits
system.cpu1.dcache.SwapReq_misses::.cpu1.data        47659                       # number of SwapReq misses
system.cpu1.dcache.SwapReq_misses::total        47659                       # number of SwapReq misses
system.cpu1.dcache.SwapReq_miss_latency::.cpu1.data    766920478                       # number of SwapReq miss cycles
system.cpu1.dcache.SwapReq_miss_latency::total    766920478                       # number of SwapReq miss cycles
system.cpu1.dcache.SwapReq_accesses::.cpu1.data       165099                       # number of SwapReq accesses(hits+misses)
system.cpu1.dcache.SwapReq_accesses::total       165099                       # number of SwapReq accesses(hits+misses)
system.cpu1.dcache.SwapReq_miss_rate::.cpu1.data     0.288669                       # miss rate for SwapReq accesses
system.cpu1.dcache.SwapReq_miss_rate::total     0.288669                       # miss rate for SwapReq accesses
system.cpu1.dcache.SwapReq_avg_miss_latency::.cpu1.data 16091.828993                       # average SwapReq miss latency
system.cpu1.dcache.SwapReq_avg_miss_latency::total 16091.828993                       # average SwapReq miss latency
system.cpu1.dcache.SwapReq_mshr_hits::.cpu1.data          148                       # number of SwapReq MSHR hits
system.cpu1.dcache.SwapReq_mshr_hits::total          148                       # number of SwapReq MSHR hits
system.cpu1.dcache.SwapReq_mshr_misses::.cpu1.data        47511                       # number of SwapReq MSHR misses
system.cpu1.dcache.SwapReq_mshr_misses::total        47511                       # number of SwapReq MSHR misses
system.cpu1.dcache.SwapReq_mshr_miss_latency::.cpu1.data    716525980                       # number of SwapReq MSHR miss cycles
system.cpu1.dcache.SwapReq_mshr_miss_latency::total    716525980                       # number of SwapReq MSHR miss cycles
system.cpu1.dcache.SwapReq_mshr_miss_rate::.cpu1.data     0.287773                       # mshr miss rate for SwapReq accesses
system.cpu1.dcache.SwapReq_mshr_miss_rate::total     0.287773                       # mshr miss rate for SwapReq accesses
system.cpu1.dcache.SwapReq_avg_mshr_miss_latency::.cpu1.data 15081.264970                       # average SwapReq mshr miss latency
system.cpu1.dcache.SwapReq_avg_mshr_miss_latency::total 15081.264970                       # average SwapReq mshr miss latency
system.cpu1.dcache.tags.pwrStateResidencyTicks::UNDEFINED 667055222000                       # Cumulative time (in ticks) in various power states
system.cpu1.dcache.tags.tagsinuse           31.738930                       # Cycle average of tags in use
system.cpu1.dcache.tags.total_refs           49110173                       # Total number of references to valid blocks.
system.cpu1.dcache.tags.sampled_refs          7798139                       # Sample count of references to valid blocks.
system.cpu1.dcache.tags.avg_refs             6.297679                       # Average number of references to valid blocks.
system.cpu1.dcache.tags.warmup_cycle                0                       # Cycle when the warmup percentage was hit.
system.cpu1.dcache.tags.occ_blocks::.cpu1.data    31.738930                       # Average occupied blocks per requestor
system.cpu1.dcache.tags.occ_percent::.cpu1.data     0.991842                       # Average percentage of cache occupancy
system.cpu1.dcache.tags.occ_percent::total     0.991842                       # Average percentage of cache occupancy
system.cpu1.dcache.tags.occ_task_id_blocks::1024           29                       # Occupied blocks per task id
system.cpu1.dcache.tags.age_task_id_blocks_1024::1            4                       # Occupied blocks per task id
system.cpu1.dcache.tags.age_task_id_blocks_1024::2           25                       # Occupied blocks per task id
system.cpu1.dcache.tags.occ_task_id_percent::1024     0.906250                       # Percentage of cache occupancy per task id
system.cpu1.dcache.tags.tag_accesses        124868094                       # Number of tag accesses
system.cpu1.dcache.tags.data_accesses       124868094                       # Number of data accesses
system.cpu_clk_domain.clock                       500                       # Clock period in ticks
system.tol2bus.pwrStateResidencyTicks::UNDEFINED 667055222000                       # Cumulative time (in ticks) in various power states
system.tol2bus.trans_dist::ReadResp          21577150                       # Transaction distribution
system.tol2bus.trans_dist::WritebackDirty      8930644                       # Transaction distribution
system.tol2bus.trans_dist::WritebackClean     18523986                       # Transaction distribution
system.tol2bus.trans_dist::CleanEvict        28695744                       # Transaction distribution
system.tol2bus.trans_dist::UpgradeReq          156339                       # Transaction distribution
system.tol2bus.trans_dist::SCUpgradeReq         95105                       # Transaction distribution
system.tol2bus.trans_dist::UpgradeResp         251444                       # Transaction distribution
system.tol2bus.trans_dist::SCUpgradeFailReq         1453                       # Transaction distribution
system.tol2bus.trans_dist::UpgradeFailResp         1453                       # Transaction distribution
system.tol2bus.trans_dist::ReadExReq          2013489                       # Transaction distribution
system.tol2bus.trans_dist::ReadExResp         2013492                       # Transaction distribution
system.tol2bus.trans_dist::ReadCleanReq       7415936                       # Transaction distribution
system.tol2bus.trans_dist::ReadSharedReq     14161215                       # Transaction distribution
system.tol2bus.trans_dist::InvalidateReq         8786                       # Transaction distribution
system.tol2bus.trans_dist::InvalidateResp         8786                       # Transaction distribution
system.tol2bus.pkt_count_system.cpu0.icache.mem_side::system.l2.cpu_side      9688393                       # Packet count per connected master and slave (bytes)
system.tol2bus.pkt_count_system.cpu0.dcache.mem_side::system.l2.cpu_side     25018513                       # Packet count per connected master and slave (bytes)
system.tol2bus.pkt_count_system.cpu1.icache.mem_side::system.l2.cpu_side     12557188                       # Packet count per connected master and slave (bytes)
system.tol2bus.pkt_count_system.cpu1.dcache.mem_side::system.l2.cpu_side     23175625                       # Packet count per connected master and slave (bytes)
system.tol2bus.pkt_count::total              70439719                       # Packet count per connected master and slave (bytes)
system.tol2bus.pkt_size_system.cpu0.icache.mem_side::system.l2.cpu_side    413343360                       # Cumulative packet size per connected master and slave (bytes)
system.tol2bus.pkt_size_system.cpu0.dcache.mem_side::system.l2.cpu_side   1052488192                       # Cumulative packet size per connected master and slave (bytes)
system.tol2bus.pkt_size_system.cpu1.icache.mem_side::system.l2.cpu_side    535753920                       # Cumulative packet size per connected master and slave (bytes)
system.tol2bus.pkt_size_system.cpu1.dcache.mem_side::system.l2.cpu_side    974763968                       # Cumulative packet size per connected master and slave (bytes)
system.tol2bus.pkt_size::total             2976349440                       # Cumulative packet size per connected master and slave (bytes)
system.tol2bus.snoops                        33415303                       # Total snoops (count)
system.tol2bus.snoopTraffic                 290640960                       # Total snoop traffic (bytes)
system.tol2bus.snoop_fanout::samples         56711227                       # Request fanout histogram
system.tol2bus.snoop_fanout::mean            0.351821                       # Request fanout histogram
system.tol2bus.snoop_fanout::stdev           0.533143                       # Request fanout histogram
system.tol2bus.snoop_fanout::underflows             0      0.00%      0.00% # Request fanout histogram
system.tol2bus.snoop_fanout::0               38352564     67.63%     67.63% # Request fanout histogram
system.tol2bus.snoop_fanout::1               16765144     29.56%     97.19% # Request fanout histogram
system.tol2bus.snoop_fanout::2                1593508      2.81%    100.00% # Request fanout histogram
system.tol2bus.snoop_fanout::3                     11      0.00%    100.00% # Request fanout histogram
system.tol2bus.snoop_fanout::4                      0      0.00%    100.00% # Request fanout histogram
system.tol2bus.snoop_fanout::5                      0      0.00%    100.00% # Request fanout histogram
system.tol2bus.snoop_fanout::6                      0      0.00%    100.00% # Request fanout histogram
system.tol2bus.snoop_fanout::7                      0      0.00%    100.00% # Request fanout histogram
system.tol2bus.snoop_fanout::8                      0      0.00%    100.00% # Request fanout histogram
system.tol2bus.snoop_fanout::overflows              0      0.00%    100.00% # Request fanout histogram
system.tol2bus.snoop_fanout::min_value              0                       # Request fanout histogram
system.tol2bus.snoop_fanout::max_value              3                       # Request fanout histogram
system.tol2bus.snoop_fanout::total           56711227                       # Request fanout histogram
system.tol2bus.reqLayer0.occupancy        46864000230                       # Layer occupancy (ticks)
system.tol2bus.reqLayer0.utilization              7.0                       # Layer utilization (%)
system.tol2bus.respLayer1.occupancy       12655778205                       # Layer occupancy (ticks)
system.tol2bus.respLayer1.utilization             1.9                       # Layer utilization (%)
system.tol2bus.respLayer0.occupancy        4859376875                       # Layer occupancy (ticks)
system.tol2bus.respLayer0.utilization             0.7                       # Layer utilization (%)
system.tol2bus.respLayer3.occupancy       11762639563                       # Layer occupancy (ticks)
system.tol2bus.respLayer3.utilization             1.8                       # Layer utilization (%)
system.tol2bus.respLayer2.occupancy        6293526460                       # Layer occupancy (ticks)
system.tol2bus.respLayer2.utilization             0.9                       # Layer utilization (%)

---------- End Simulation Statistics   ----------
