Redirecting stdout to /vol1/msoyturk/gem5/results/sssp/dblp.el/prefetch_SignaturePathPrefetcher_BRRIPRP/output.txt
Redirecting stderr to /vol1/msoyturk/gem5/results/sssp/dblp.el/prefetch_SignaturePathPrefetcher_BRRIPRP/error.txt
gem5 Simulator System.  http://gem5.org
gem5 is copyrighted software; use the --copyright option for details.

gem5 compiled Apr 26 2020 13:32:47
gem5 started Apr 26 2020 14:10:05
gem5 executing on draco, pid 2898
command line: /vol1/msoyturk/gem5/build/RISCV/gem5.fast -re --outdir=/vol1/msoyturk/gem5/results/sssp/dblp.el/prefetch_SignaturePathPrefetcher_BRRIPRP --stdout-file=output.txt --stderr-file=error.txt /vol1/msoyturk/gem5/configs/example/my_se.py -c /vol1/msoyturk/gem5/gapbs/sssp -o '-f /vol1/msoyturk/gem5/gapbs/test/graphs/dblp.el' --caches --l1d_size=2kB --l1i_size=2kB --cpu-type=DerivO3CPU -n 4 --mem-size=512MB --l2cache --l2_size=4kB --l2-hwp-type=SignaturePathPrefetcher --l2-replacement-policy=BRRIPRP --l1i_mshrs=4 --l1d_mshrs=4 --l2_mshrs=20 --l1i_write_buffers=8 --l1d_write_buffers=8 --l2_write_buffers=8

info: Standard input is not a terminal, disabling listeners.
Warning: l2-hwp-type is set ( SignaturePathPrefetcher ), but the current l2 has a default Hardware Prefetcher of type <class 'm5.params.NullSimObject'> , using the specified by the flag option.
Global frequency set at 1000000000000 ticks per second
**** REAL SIMULATION ****
Read Time:           1.08980
Build Time:          0.26802
Graph has 425957 nodes and 1049866 directed edges for degree: 2
    0          1     0.02580
   36          1     0.00654
  114          2     0.04870
  118          1     0.00545
  120          1     0.00612
  139          1     0.01284
  143          1     0.01294
  147          1     0.02075
  150          2     0.00578
  154          1     0.01129
  156          2     0.01261
  160          1     0.00733
  166          1     0.00571
  168          1     0.00558
  176          1     0.01558
  181          1     0.00596
  182          1     0.00562
  183          1     0.02431
  184          1     0.00616
  186          1     0.00622
  187          1     0.00684
  189          1     0.00639
  191          1     0.01741
  195          1     0.00625
  204          1     0.00875
  208          1     0.00862
  211          3     0.01239
  212          1     0.00825
  214          1     0.00609
  220          1     0.00631
  221          1     0.02233
  222          1     0.00609
  223          1     0.00581
  225          2     0.01728
  227          1     0.01683
  228          1     0.00661
  229          1     0.00618
  230          5     0.00625
  234          1     0.01214
  238          2     0.00571
  239          2     0.01013
  243          1     0.00573
  245          1     0.00881
  247          1     0.00568
  248          2     0.00585
  252          2     0.03851
  254          2     0.00551
  256          4     0.02204
  260          1     0.00738
  262          3     0.00627
  265          3     0.00595
  267          2     0.00965
  268          2     0.00980
  270          2     0.00900
  271          3     0.00559
  272          1     0.00529
  274          3     0.01118
  275          1     0.00589
  276          1     0.00577
  277          1     0.01689
  279          2     0.00690
  280          1     0.00579
  282          1     0.00524
  283          2     0.00939
  284          2     0.00600
  286          1     0.00558
  289          2     0.00624
  291          1     0.01028
  292          2     0.00637
  293          1     0.00560
  294          2     0.00608
  295          2     0.00563
  298          1     0.00545
  299          1     0.00589
  300          1     0.00598
  301          1     0.01940
  302          3     0.00638
  303          2     0.02084
  304          2     0.01624
  305          1     0.01055
  307          1     0.01114
  310          1     0.00562
  311          3     0.01303
  312          1     0.00546
  313          1     0.00564
  314          1     0.00779
  316          2     0.01620
  317          4     0.01064
  318          3     0.00988
  320          1     0.00642
  321          1     0.00627
  323          2     0.02014
  324          1     0.00520
  325          1     0.00550
  326          1     0.00549
  327          3     0.00974
  328          1     0.00623
  329          2     0.00662
  332          3     0.01266
  333          2     0.02445
  334          3     0.02222
  335          3     0.01369
  338          4     0.00925
  341          4     0.01506
  343          3     0.01406
  344          2     0.01174
  345          2     0.01559
  346          1     0.00613
  347          2     0.00987
  349          5     0.02017
  350          1     0.00783
  352          2     0.01349
  353          2     0.00885
  354          2     0.00557
  355          2     0.01264
  356          3     0.01328
  357          3     0.01105
  358          2     0.01063
  359          1     0.00944
  360          3     0.00572
  362          3     0.00568
  363          1     0.00545
  364          2     0.00822
  365          1     0.00573
  366          3     0.00852
  368          3     0.00589
  369          1     0.00545
  370          1     0.00977
  371          5     0.01253
  372          2     0.00844
  373          1     0.00622
  375          1     0.00582
  376          3     0.01754
  377          1     0.00527
  378          1     0.00580
  379          4     0.00601
  380          2     0.01240
  381          2     0.00585
  382          2     0.02709
  383          1     0.01917
  385          4     0.01267
  386          2     0.00734
  387          2     0.01098
  388          2     0.01118
  389          4     0.00743
  390          1     0.01432
  391          4     0.01032
  393          2     0.00619
  394          1     0.00575
  396          2     0.00593
  397          1     0.00801
  398          3     0.00598
  399          4     0.00555
  400          3     0.00579
  401          3     0.00595
  402          1     0.00929
  403          3     0.01558
  404          1     0.00587
  405          3     0.01189
  406          1     0.01573
  407          2     0.00611
  409          5     0.01188
  410          2     0.00561
  411          1     0.00530
  413          2     0.00521
  414          1     0.00547
  415          1     0.01259
  417          3     0.00615
  418          3     0.00741
  419          1     0.00561
  420          2     0.00937
  421          2     0.00799
  422          1     0.00575
  423          2     0.01218
  424          1     0.01066
  425          1     0.00588
  426          1     0.00584
  427          2     0.00635
  428          2     0.01609
  429          3     0.00637
  430          2     0.00583
  431          2     0.00869
  432          1     0.00575
  433          3     0.00940
  434          2     0.00883
  435          2     0.01331
  436          1     0.01048
  437          3     0.00592
  438          3     0.00595
  439          1     0.00572
  441          3     0.00517
  443          1     0.00556
  444          2     0.00568
  445          1     0.01066
  446          4     0.01090
  447          3     0.01075
  448          4     0.00570
  449          2     0.00587
  450          3     0.01095
  451          1     0.00594
  452          2     0.01431
  453          3     0.01090
  454          1     0.01542
  456          3     0.00638
  457          2     0.01760
  458          2     0.00630
  459          1     0.00565
  461          1     0.01005
  462          4     0.01151
  463          3     0.01827
  464          2     0.00630
  465          2     0.00608
  466          3     0.00566
  467          4     0.01832
  468          5     0.01133
  469          2     0.00628
  470          2     0.00549
  471          3     0.00947
  472          3     0.00623
  473          3     0.00611
  474          3     0.01129
  475          5     0.00924
  476          4     0.00987
  477          2     0.00542
  478          2     0.00588
  479          3     0.00931
  480          2     0.00610
  481          2     0.00867
  482          2     0.00589
  483          1     0.00510
  484          1     0.00575
  485          2     0.00825
  486          1     0.01386
  487          5     0.00954
  489          1     0.01148
  490          3     0.00553
  491          4     0.00642
  492          1     0.00801
  493          3     0.01509
  496          2     0.00571
  497          3     0.01296
  498          4     0.03213
  499          2     0.00550
  501          2     0.00774
  502          4     0.00618
  503          1     0.00460
  505          5     0.00543
  506          2     0.00974
  507          3     0.01000
  508          3     0.00569
  509          1     0.00546
  510          2     0.01939
  511          5     0.02354
  512          1     0.01402
  513          3     0.00592
  514          2     0.00545
  515          4     0.00983
  516          2     0.01236
  517          2     0.01389
  518          3     0.02350
  519          3     0.01287
  520          1     0.00942
  521          2     0.00605
  522          3     0.00541
  523          1     0.00438
  527          4     0.01243
  528          4     0.00864
  529          2     0.00585
  530          3     0.00831
  531          5     0.02045
  532          1     0.00874
  533          4     0.01153
  534          1     0.00591
  535          4     0.00625
  537          2     0.00899
  538          1     0.00575
  539          4     0.00625
  540          1     0.00577
  541          4     0.01539
  542          2     0.00530
  543         10     0.01409
  544          3     0.01829
  545          2     0.00608
  546          2     0.00729
  547          3     0.01376
  548          3     0.00587
  549          3     0.01067
  550          4     0.01269
  551          2     0.01217
  552          2     0.00582
  553          1     0.00526
  555          2     0.00550
  556          4     0.00505
  557          1     0.01245
  558          2     0.00666
  559          4     0.01249
  560          2     0.00576
  561          1     0.01293
  562          6     0.00588
  563          1     0.00582
  564          2     0.01213
  565          1     0.00558
  566          5     0.01273
  567          4     0.00641
  568          2     0.01159
  569          3     0.00927
  570          1     0.00566
  571          2     0.00541
  572          3     0.00566
  573          2     0.00551
  574          2     0.00510
  575          1     0.00551
  576          6     0.00700
  577          2     0.00520
  578          1     0.00535
  579          1     0.00596
  581          6     0.00905
  582          2     0.00592
  583          1     0.00556
  584          3     0.02051
  585          1     0.00548
  586          6     0.01039
  587          5     0.00876
  588          3     0.00949
  589          3     0.00670
  590          2     0.01572
  591          4     0.00946
  592          6     0.01681
  594          4     0.00584
  595          1     0.00560
  597          2     0.00601
  598          2     0.00546
  599          3     0.00630
  600          1     0.00555
  601          1     0.00565
  602          1     0.00541
  603          2     0.00961
  604          3     0.00730
  605          5     0.00684
  606          3     0.01663
  607          2     0.00637
  608          3     0.00588
  609          2     0.00821
  610          2     0.00605
  611          2     0.00924
  612          1     0.01313
  614          1     0.01134
  615          3     0.00591
  616          4     0.00587
  617          2     0.01237
  618          3     0.01437
  619          5     0.00608
  622          3     0.01238
  623          5     0.00997
  624          3     0.01300
  625          2     0.00605
  626          3     0.00937
  627          4     0.02283
  628          3     0.00921
  630          4     0.00797
  631          1     0.00597
  632          1     0.00532
  633          4     0.02182
  634          1     0.01371
  635          1     0.00639
  636          1     0.00926
  637          4     0.01772
  638          1     0.00597
  640          4     0.01955
  641          3     0.01117
  642          1     0.00765
  643          2     0.01832
  644          3     0.00596
  645          1     0.00543
  646          1     0.00594
  647          3     0.00681
  648          1     0.00536
  649          1     0.00609
  650          2     0.00584
  652          4     0.02005
  653          4     0.00572
  655          3     0.01025
  656          1     0.00941
  657          1     0.00610
  658          1     0.00558
  660          1     0.00499
  661          1     0.00582
  662          2     0.00581
  663          3     0.01170
  664          3     0.00579
  665          4     0.01732
  666          2     0.00650
  667          3     0.00582
  668          1     0.01446
  669          1     0.01478
  670          1     0.00563
  671          3     0.00861
  672          2     0.00572
  674          1     0.00553
  675          2     0.00581
  677          1     0.01010
  678          3     0.01077
  679          3     0.00581
  680          4     0.00899
  681          4     0.00647
  682          7     0.05069
  683          2     0.00885
  684          1     0.00594
  685          4     0.02282
  686          4     0.01777
  687          4     0.00923
  688          3     0.01443
  690          4     0.00645
  691          1     0.00637
  692          3     0.03211
  693          2     0.00621
  694          3     0.00969
  695          3     0.02994
  696          1     0.00836
  697          6     0.01301
  698          1     0.03237
  699          7     0.01654
  700          2     0.00627
  701          3     0.01269
  702          1     0.00600
  703          3     0.00936
  704          1     0.02220
  705          3     0.01362
  706          2     0.00796
  707          3     0.00599
  708          5     0.01345
  710          6     0.01072
  711          6     0.01062
  712          3     0.01135
  713          3     0.01179
  714          6     0.01966
  715          2     0.00897
  716          1     0.00561
  717          1     0.02689
  718          2     0.01935
  719          4     0.01235
  720          1     0.01611
  721          6     0.01150
  722          3     0.02679
  723          5     0.01212
  724          3     0.00904
  725          6     0.01052
  726          1     0.00938
  727          5     0.00594
  728          3     0.00587
  729          6     0.01853
  730          4     0.02033
  731          3     0.01078
  732          3     0.00694
  733          1     0.00618
  734          5     0.02005
  735          3     0.00590
  736          2     0.00564
  737          4     0.01010
  738          2     0.00563
  739          3     0.01223
  740          2     0.01180
  741          4     0.01014
  742          4     0.00771
  743          4     0.01124
  744          5     0.00999
  745          3     0.01122
  746          3     0.00843
  747          4     0.00680
  748          3     0.00645
  749          1     0.00607
  750          6     0.00683
  751          5     0.01752
  752          5     0.01640
  753          2     0.00572
  754          3     0.00590
  755          5     0.00988
  756          5     0.01383
  757          5     0.01391
  758          1     0.01010
  759          2     0.01682
  760          7     0.02233
  761          4     0.01935
  762          4     0.00655
  763          3     0.01174
  764          4     0.00683
  765          4     0.01843
  766          2     0.00618
  767          2     0.00590
  768          3     0.01104
  769          2     0.01037
  770          4     0.01196
  771          3     0.01065
  772          3     0.02302
  773          2     0.00625
  774          4     0.01460
  775          2     0.00580
  776          2     0.01852
  777          4     0.00776
  778          5     0.02651
  779          6     0.02017
  780          2     0.00971
  781          3     0.01125
  782          2     0.00557
  783          4     0.00637
  784          5     0.01059
  786          3     0.00588
  788          6     0.01750
  789          4     0.01689
  790          5     0.00925
  791          4     0.01026
  792          2     0.01590
  793          4     0.01698
  794          2     0.00641
  796          1     0.00750
  797          3     0.01127
  798          2     0.00658
  799          4     0.01379
  800          2     0.01047
  801          3     0.01475
  802          6     0.02016
  803          3     0.00593
  804          3     0.01774
  805          3     0.01346
  806          3     0.01492
  807          4     0.01349
  808          4     0.01702
  809          4     0.00733
  810          2     0.01406
  811          2     0.00807
  812          5     0.01927
  813          5     0.01172
  814          2     0.01111
  815          2     0.01476
  816          3     0.00581
  817          5     0.00605
  818          5     0.00623
  819          2     0.00559
  820          4     0.01054
  821          2     0.00552
  822          3     0.01155
  823          1     0.00586
  824          8     0.00908
  825          1     0.00547
  826          5     0.01136
  827          8     0.04439
  828          7     0.01226
  829          2     0.00560
  830          7     0.01371
  831          5     0.00644
  832          2     0.00949
  833          2     0.00630
  834          3     0.00878
  835          3     0.01083
  836          4     0.01600
  837          5     0.01386
  838          3     0.01150
  839          6     0.02499
  840          3     0.01033
  841          6     0.02371
  842          8     0.02172
  843          2     0.01076
  844          2     0.00564
  845          4     0.01116
  846          3     0.01466
  847          8     0.02279
  848          6     0.02534
  849          3     0.00664
  850          3     0.01056
  851          3     0.01754
  852          2     0.01044
  853          5     0.01128
  854          6     0.00968
  855          7     0.00934
  856          2     0.00547
  857          2     0.00886
  858          8     0.00618
  859          5     0.01008
  860          3     0.00902
  861          5     0.01487
  862          2     0.01762
  863          3     0.00672
  864          8     0.01513
  865          8     0.01027
  866          7     0.00620
  867          5     0.01102
  868          7     0.00946
  869          7     0.00738
  870          3     0.00606
  871          5     0.00762
  872         10     0.00711
  873          5     0.00823
  874         10     0.02055
  875          4     0.01428
  876          3     0.01103
  877          5     0.01153
  878          6     0.00933
  879          7     0.01774
  880          3     0.00648
  881          2     0.00564
  882          3     0.00605
  883          5     0.00987
  884          4     0.01377
  885          3     0.01465
  886          2     0.00925
  887          3     0.01416
  888          6     0.01371
  889          3     0.00675
  890          5     0.01781
  891          5     0.01039
  892          6     0.00639
  893          2     0.00577
  894          4     0.00536
  895          7     0.02556
  896          5     0.00884
  897          7     0.00639
  898          8     0.02074
  899          3     0.00655
  900          3     0.01184
  901          4     0.00643
  902          2     0.00612
  903          3     0.01224
  904          1     0.01691
  905          3     0.00594
  906          4     0.01353
  907          4     0.01133
  908          5     0.00738
  909          5     0.00976
  910          5     0.00745
  911         10     0.02515
  912          4     0.00634
  913          3     0.00600
  914          2     0.00535
  915          5     0.02400
  916          5     0.01575
  917          4     0.01155
  918          4     0.01303
  919          8     0.01126
  920          6     0.00977
  921          8     0.01781
  922          7     0.02070
  923          8     0.01283
  924          7     0.01081
  925          6     0.00894
  926          4     0.01034
  927          5     0.01278
  928          8     0.01333
  929          3     0.00942
  930          4     0.01795
  931          3     0.02016
  932          5     0.01274
  933          4     0.01923
  934          6     0.00645
  935          5     0.01298
  936          4     0.00762
  937          2     0.00554
  938          4     0.00547
  939          5     0.01173
  940          4     0.00906
  941          7     0.02203
  942          4     0.00730
  943          2     0.00959
  944          4     0.00683
  945          3     0.01000
  946          5     0.00903
  947          4     0.00995
  948          5     0.01382
  949          3     0.01960
  950          4     0.01441
  951          4     0.00672
  952          4     0.00994
  953          7     0.01038
  954          7     0.01195
  955          5     0.01227
  956          7     0.01646
  957         12     0.01876
  958          9     0.01527
  959          7     0.01292
  960          3     0.00572
  961          7     0.01702
  962          5     0.00602
  963          9     0.01001
  964          6     0.04274
  965          4     0.01484
  966          3     0.00766
  967          4     0.00598
  968          8     0.03148
  969          3     0.00678
  970          8     0.01832
  971          5     0.01177
  972          7     0.01015
  973          3     0.01608
  974          5     0.01107
  975          3     0.01222
  976          4     0.00671
  977          7     0.02346
  978         11     0.02153
  979          6     0.01078
  980          3     0.01085
  981          3     0.00810
  982          3     0.01171
  983          6     0.01168
  984          5     0.01185
  985          7     0.02729
  986          6     0.00984
  987          5     0.01836
  988          8     0.01095
  989          5     0.00693
  990          8     0.02006
  991          8     0.01264
  992          7     0.00920
  993          7     0.01033
  994          5     0.01102
  995          5     0.00943
  996          4     0.00627
  997          4     0.00664
  998          7     0.01255
  999         11     0.02296
 1000          5     0.00884
 1001          7     0.00865
 1002          8     0.00718
 1003          6     0.01205
 1004          8     0.01548
 1005          6     0.01534
 1006          6     0.01131
 1007          4     0.01638
 1008          6     0.00937
 1009          9     0.01963
 1010          5     0.01419
 1011          4     0.00701
 1012          7     0.02055
 1013          8     0.00700
 1014          5     0.02167
 1015          6     0.01591
 1016          5     0.01001
 1017          7     0.01183
 1018          2     0.00605
 1019          6     0.01004
 1020          5     0.01242
 1021          7     0.01222
 1022          7     0.01767
 1023          4     0.00680
 1024          6     0.01076
 1025          3     0.00570
 1026          4     0.01283
 1027          9     0.01058
 1028          5     0.01115
 1029          2     0.00827
 1030          6     0.00667
 1031          8     0.01714
 1032          7     0.00640
 1033          2     0.00651
 1034          4     0.01109
 1035          5     0.01713
 1036          6     0.00645
 1037          4     0.00600
 1038          4     0.00593
 1039          5     0.00608
 1040          3     0.00991
 1041          6     0.01609
 1042          5     0.00619
 1043          8     0.02070
 1044          9     0.01026
 1045          3     0.00571
 1046          6     0.00618
 1047          6     0.01423
 1048          2     0.01469
 1049          4     0.00623
 1050          3     0.00578
 1051          5     0.01697
 1052          6     0.01962
 1053          3     0.00587
 1054          3     0.00580
 1055          6     0.01992
 1056          9     0.02321
 1057          4     0.01149
 1058          7     0.00720
 1059          7     0.01344
 1060          6     0.00873
 1061          5     0.00834
 1062          6     0.01280
 1063          6     0.02310
 1064          2     0.00556
 1065          3     0.02247
 1066          6     0.00907
 1067          9     0.01142
 1068          5     0.01783
 1069          9     0.02947
 1070         10     0.02395
 1071          1     0.00622
 1072          4     0.01245
 1073          4     0.00636
 1074          5     0.00651
 1075          5     0.00899
 1076          6     0.01461
 1077          4     0.00752
 1078          4     0.01538
 1079          4     0.00777
 1080          9     0.01324
 1081          9     0.01221
 1082          4     0.00685
 1083          3     0.00732
 1084         10     0.01030
 1085          4     0.01008
 1086          6     0.01489
 1087          5     0.01450
 1088          5     0.01459
 1089          2     0.00589
 1090          7     0.00850
 1091          2     0.01513
 1092          3     0.00562
 1093          8     0.01117
 1094          5     0.00857
 1095          4     0.00839
 1096          8     0.00878
 1097          7     0.02501
 1098          1     0.00573
 1099          4     0.00854
 1100          7     0.01512
 1101          6     0.01384
 1102          7     0.01713
 1103          4     0.00956
 1104          8     0.02223
 1105          5     0.01943
 1106         10     0.01203
 1107          8     0.01214
 1108          9     0.00941
 1109          2     0.00539
 1110          5     0.01280
 1111          5     0.00622
 1112          5     0.01286
 1113          7     0.00733
 1114          4     0.01150
 1115          4     0.00581
 1116          4     0.01484
 1117         10     0.00739
 1118          5     0.02361
 1119          7     0.02581
 1120          6     0.00644
 1121          2     0.00539
 1122          5     0.00601
 1123          3     0.01449
 1124          8     0.00760
 1125          5     0.00591
 1126          2     0.00752
 1127          5     0.02463
 1128          3     0.01136
 1129          6     0.00572
 1130          4     0.00827
 1131          4     0.01005
 1132          9     0.02542
 1133          6     0.01436
 1134          6     0.02081
 1135          2     0.00632
 1136         11     0.01825
 1137          5     0.00782
 1138          5     0.01243
 1139          4     0.00857
 1140          6     0.01077
 1141          6     0.01005
 1142          8     0.01850
 1143          7     0.01120
 1144          2     0.00551
 1145          4     0.01050
 1146          6     0.01182
 1147          6     0.01036
 1148          3     0.01436
 1149          5     0.01001
 1150          4     0.01020
 1151          5     0.01563
 1152          4     0.00599
 1153          5     0.00669
 1154          5     0.00887
 1155          6     0.00569
 1156          4     0.00671
 1157          7     0.01568
 1158          5     0.00913
 1159          4     0.01383
 1160          7     0.01189
 1161          5     0.00630
 1162          4     0.01185
 1163          3     0.00921
 1164          7     0.00651
 1165          6     0.00687
 1166          7     0.00701
 1167          7     0.00888
 1168          7     0.01035
 1169          4     0.00653
 1170          1     0.00576
 1171          4     0.01494
 1172          1     0.00598
 1173          7     0.00580
 1174          5     0.00781
 1175          2     0.00574
 1176          4     0.01645
 1177          2     0.01134
 1178          8     0.01181
 1179          7     0.01386
 1180          7     0.01230
 1181          8     0.00878
 1182          4     0.00599
 1183          2     0.00571
 1184          7     0.01905
 1185          2     0.00604
 1186          3     0.00633
 1187          9     0.01520
 1188          4     0.00802
 1189          6     0.00843
 1190          1     0.01204
 1191          4     0.00846
 1192          3     0.00870
 1193          3     0.01997
 1194          6     0.01153
 1195          7     0.00808
 1196          8     0.00717
 1197          3     0.00671
 1198          3     0.01666
 1199          4     0.00964
 1200          6     0.00585
 1201          5     0.00655
 1202          3     0.00594
 1203          3     0.00605
 1204          5     0.00868
 1205          5     0.00881
 1206          7     0.00901
 1207          7     0.02753
 1208          7     0.01468
 1209          6     0.00900
 1210          3     0.01074
 1211          6     0.00699
 1212          4     0.01472
 1213          4     0.00637
 1214          3     0.00590
 1215          4     0.01572
 1216          8     0.00839
 1217          5     0.01813
 1218          5     0.00653
 1219          2     0.00550
 1220          4     0.00809
 1221          3     0.00607
 1222          4     0.01288
 1223          6     0.00648
 1224          4     0.00786
 1225          5     0.00629
 1226          5     0.00560
 1227          3     0.00577
 1228          2     0.00811
 1229          2     0.00586
 1230          8     0.01719
 1231          3     0.00632
 1232          5     0.00637
 1233          9     0.00682
 1234          9     0.01466
 1235          7     0.01298
 1236          3     0.01052
 1237          2     0.00944
 1238          6     0.00670
 1239          1     0.00574
 1240          3     0.01443
 1241          7     0.01389
 1242          1     0.00530
 1243          4     0.00622
 1244          4     0.00604
 1245          1     0.00599
 1246          8     0.00890
 1247          8     0.00742
 1248          2     0.00587
 1249          2     0.00590
 1250          1     0.00623
 1251          7     0.00977
 1252          5     0.01632
 1253          1     0.00589
 1254          3     0.00611
 1255          2     0.00608
 1256          4     0.00577
 1257          3     0.01644
 1258          4     0.00911
 1259          3     0.01212
 1261          4     0.00648
 1262          2     0.00600
 1263          3     0.00632
 1264          1     0.00617
 1265          2     0.00577
 1266          4     0.01208
 1267          1     0.00551
 1268          6     0.01123
 1269          1     0.00705
 1270          6     0.02519
 1271          1     0.00573
 1272          2     0.01576
 1273          5     0.00562
 1274          1     0.00611
 1275          1     0.00604
 1276          3     0.00562
 1277          4     0.01761
 1278          6     0.01170
 1279          5     0.00619
 1280          4     0.00776
 1281          5     0.00616
 1282          1     0.00604
 1283          4     0.00637
 1284          6     0.01145
 1285          1     0.00549
 1286          6     0.02233
 1287          4     0.00631
 1288          6     0.00613
 1289          1     0.00564
 1291          5     0.01576
 1292          4     0.00610
 1293          1     0.00540
 1294          4     0.01136
 1295          5     0.01073
 1296          3     0.00668
 1297          3     0.00975
 1298          2     0.00618
 1299          2     0.00709
 1300          1     0.00563
 1301          3     0.00561
 1302          3     0.00554
 1303          4     0.01086
 1304          2     0.00703
 1305          5     0.01172
 1306          4     0.00987
 1307          2     0.01483
 1308          3     0.00812
 1309          8     0.01813
 1310          4     0.00633
 1311          7     0.01874
 1312          3     0.00609
 1313          1     0.00594
 1314          1     0.00560
 1315          1     0.00551
 1316          5     0.01069
 1317          5     0.00620
 1318          3     0.00578
 1319          1     0.00587
 1320          3     0.00790
 1321          1     0.01304
 1322          2     0.00564
 1323          1     0.00597
 1324          1     0.00577
 1325          2     0.00618
 1326          3     0.00649
 1327          3     0.00634
 1328          5     0.00597
 1329          4     0.00584
 1330          3     0.00611
 1331          2     0.00819
 1332          3     0.00630
 1333          3     0.00585
 1334          3     0.00589
 1335          1     0.00572
 1336          1     0.01070
 1337          4     0.00639
 1338          1     0.00606
 1339          2     0.00565
 1340          4     0.01005
 1341          3     0.01324
 1342          3     0.01153
 1343          3     0.01208
 1344          3     0.00651
 1345          1     0.00587
 1346          5     0.00666
 1347          2     0.00606
 1348          2     0.01531
 1349          4     0.00605
 1350          1     0.00707
 1351          2     0.00601
 1352          4     0.00910
 1353          2     0.00635
 1354          1     0.00606
 1355          3     0.01261
 1356          2     0.00579
 1357          2     0.00569
 1358          3     0.00883
 1359          2     0.00577
 1360          1     0.00621
 1361          1     0.00502
 1362          2     0.00530
 1363          3     0.01471
 1365          3     0.00598
 1366          5     0.00620
 1367          2     0.00780
 1368          4     0.01137
 1369          1     0.00646
 1370          2     0.00608
 1371          1     0.00604
 1372          2     0.00559
 1373          1     0.00590
 1374          2     0.00649
 1375          2     0.00721
 1376          2     0.00618
 1377          4     0.00559
 1378          2     0.00603
 1379          1     0.01925
 1380          3     0.01868
 1382          1     0.01078
 1383          1     0.00582
 1385          1     0.00625
 1386          4     0.00990
 1387          1     0.00580
 1388          2     0.00556
 1389          3     0.01374
 1391          1     0.00601
 1392          3     0.00970
 1393          5     0.01023
 1394          5     0.01093
 1395          4     0.00810
 1396          1     0.00859
 1397          2     0.00604
 1398          2     0.00535
 1399          2     0.00582
 1400          1     0.00962
 1401          2     0.00568
 1402          1     0.00551
 1403          3     0.01631
 1404          4     0.00615
 1405          2     0.00532
 1406          1     0.01174
 1407          1     0.00626
 1408          2     0.01319
 1409          5     0.00611
 1410          2     0.00916
 1411          2     0.00594
 1412          3     0.00621
 1414          4     0.01013
 1415          1     0.00595
 1416          3     0.00598
 1417          3     0.00800
 1418          2     0.00614
 1420          2     0.01999
 1421          2     0.00936
 1422          3     0.00640
 1423          2     0.00957
 1424          2     0.00555
 1425          3     0.00564
 1426          2     0.00581
 1427          1     0.00573
 1428          1     0.00554
 1431          4     0.01482
 1432          1     0.00616
 1433          1     0.00526
 1434          1     0.00542
 1435          2     0.00607
 1436          4     0.01013
 1438          1     0.00577
 1440          4     0.01173
 1441          2     0.00648
 1442          1     0.00624
 1443          3     0.00674
 1444          4     0.00581
 1447          1     0.00614
 1448          1     0.00608
 1449          1     0.00611
 1450          2     0.01004
 1452          1     0.00642
 1453          2     0.00567
 1454          2     0.00548
 1456          1     0.00833
 1457          1     0.00567
 1458          2     0.00649
 1459          2     0.00612
 1460          4     0.00653
 1461          2     0.01069
 1462          3     0.00682
 1463          4     0.01362
 1464          1     0.00541
 1465          1     0.00902
 1467          1     0.01165
 1468          3     0.01160
 1471          2     0.00628
 1472          2     0.01459
 1473          2     0.00630
 1474          1     0.00615
 1475          2     0.01284
 1476          1     0.00628
 1477          2     0.00572
 1478          3     0.00652
 1479          1     0.00619
 1480          1     0.00629
 1482          4     0.00653
 1483          1     0.00582
 1484          3     0.01230
 1485          1     0.00746
 1486          2     0.01211
 1487          4     0.00804
 1490          2     0.00560
 1491          1     0.00601
 1494          1     0.00599
 1498          1     0.00687
 1499          1     0.00594
 1500          1     0.00593
 1501          2     0.00834
 1502          3     0.00605
 1504          1     0.00578
 1505          1     0.00561
 1506          1     0.00506
 1507          2     0.00858
 1509          1     0.00612
 1510          1     0.00522
 1511          2     0.00582
 1512          1     0.00579
 1513          2     0.01346
 1514          1     0.00637
 1515          2     0.00603
 1517          1     0.00598
 1519          2     0.01497
 1520          1     0.00623
 1521          4     0.01169
 1524          1     0.00861
 1525          5     0.01721
 1526          1     0.00604
 1527          3     0.00591
 1528          3     0.00603
 1530          2     0.00553
 1531          3     0.00880
 1532          2     0.00611
 1534          3     0.00913
 1535          2     0.00606
 1537          1     0.00580
 1539          2     0.00601
 1541          1     0.00592
 1544          3     0.00930
 1546          1     0.00644
 1551          2     0.01115
 1553          1     0.00610
 1555          1     0.00581
 1559          4     0.00699
 1560          1     0.00576
 1561          3     0.00590
 1565          1     0.00541
 1567          1     0.00527
 1568          1     0.01142
 1569          3     0.00769
 1570          2     0.00579
 1571          2     0.00625
 1572          3     0.00849
 1573          1     0.00928
 1574          1     0.00802
 1575          1     0.00591
 1577          2     0.00619
 1578          1     0.00953
 1579          2     0.00641
 1581          1     0.00537
 1583          2     0.00578
 1585          1     0.00883
 1586          1     0.01053
 1587          1     0.00652
 1588          2     0.00585
 1589          1     0.00548
 1590          1     0.00508
 1591          2     0.00612
 1592          2     0.00607
 1594          1     0.00560
 1595          1     0.01120
 1596          2     0.00606
 1597          2     0.01154
 1601          2     0.00576
 1602          2     0.01530
 1603          2     0.00604
 1604          2     0.00578
 1605          1     0.00605
 1611          1     0.00630
 1615          1     0.00606
 1617          1     0.00593
 1621          2     0.00970
 1622          1     0.00618
 1623          1     0.00629
 1624          1     0.00798
 1625          1     0.00633
 1626          1     0.00589
 1628          1     0.00647
 1629          3     0.01126
 1631          1     0.00623
 1633          2     0.00722
 1634          1     0.00562
 1635          2     0.01276
 1636          1     0.00633
 1637          1     0.03965
 1642          2     0.00735
 1644          1     0.00878
 1647          1     0.00975
 1649          1     0.00638
 1650          1     0.00670
 1651          1     0.00654
 1652          2     0.00684
 1653          1     0.00618
 1654          1     0.00652
 1658          1     0.04756
 1659          1     0.01212
 1661          2     0.00592
 1664          1     0.01154
 1668          1     0.00646
 1670          1     0.00618
 1671          2     0.00607
 1672          1     0.00575
 1673          1     0.00599
 1675          1     0.01019
 1676          1     0.00636
 1679          2     0.01254
 1680          1     0.00630
 1681          1     0.00668
 1683          1     0.00653
 1686          1     0.00589
 1687          1     0.00560
 1688          1     0.00628
 1689          1     0.00832
 1690          1     0.00627
 1693          1     0.00566
 1694          1     0.00583
 1695          1     0.00582
 1697          1     0.00586
 1702          1     0.00814
 1704          1     0.00626
 1706          2     0.00579
 1707          1     0.00909
 1708          1     0.00626
 1711          1     0.00622
 1712          2     0.01345
 1714          1     0.00595
 1715          1     0.00547
 1717          1     0.00566
 1718          1     0.00555
 1721          1     0.00598
 1726          2     0.00595
 1729          2     0.01055
 1735          1     0.00834
 1740          1     0.01010
 1741          1     0.00661
 1745          1     0.00890
 1749          1     0.00645
 1750          1     0.00562
 1753          1     0.00620
 1762          1     0.00578
 1763          1     0.00585
 1765          3     0.00610
 1771          2     0.00856
 1772          1     0.00550
 1773          2     0.01062
 1775          1     0.00583
 1778          1     0.00614
 1779          1     0.00679
 1784          1     0.00573
 1785          1     0.00593
 1786          2     0.00506
 1789          1     0.00590
 1790          1     0.00558
 1791          1     0.00613
 1793          1     0.00632
 1796          1     0.00589
 1798          1     0.00582
 1799          1     0.00604
 1805          1     0.00595
 1818          1     0.00593
 1819          2     0.00651
 1826          1     0.00556
 1832          1     0.00556
 1846          1     0.00563
 1847          1     0.00551
 1848          1     0.00596
 1849          2     0.00577
 1851          1     0.00601
 1857          1     0.00611
 1860          1     0.00608
 1866          1     0.00579
 1871          1     0.01239
 1879          1     0.00592
 1883          1     0.00549
 1888          2     0.01042
 1901          2     0.00600
 1902          1     0.00589
 1907          1     0.00588
 1908          1     0.00611
 1914          1     0.00625
 1944          1     0.00942
 1950          1     0.00612
 1958          1     0.00590
 1961          1     0.00675
 2036          1     0.00571
 2044          1     0.00619
 2116          1     0.01011
 2175          1     0.00686
 2269          1     0.00922
 2318          1     0.01465
 2365          1     0.00612
 2375          1     0.00991
 2510          1     0.00651
 2518          1     0.00615
 2555          1     0.00648
 2569          1     0.00532
took 1390 iterations
Trial Time:          0.03743
    0          1     0.01471
   59          1     0.00563
took 2 iterations
Trial Time:          0.00044
    0          1     0.01519
  127          1     0.00537
took 2 iterations
Trial Time:          0.00044
    0          1     0.02255
   63          1     0.01133
  101          1     0.00606
  107          1     0.00516
  111          1     0.01261
  126          1     0.02082
  182          1     0.00775
  184          2     0.00772
  187          1     0.00672
  188          1     0.00724
  196          1     0.00675
  204          1     0.00736
  205          1     0.00606
  231          1     0.00686
  238          1     0.00631
  250          1     0.00633
  318          1     0.00575
  322          1     0.00633
  341          1     0.00529
took 19 iterations
Trial Time:          0.00087
    0          1     0.01402
   15          1     0.00591
took 2 iterations
Trial Time:          0.00043
    0          1     0.01777
   21          1     0.04414
   24          1     0.00838
   32          1     0.03213
   34          1     0.01301
   46          1     0.01496
   48          1     0.03509
   53          1     0.00606
   55          1     0.01296
   60          2     0.01694
   63          1     0.02459
   65          1     0.00546
   66          2     0.01600
   67          3     0.01879
   68          2     0.01964
   69          1     0.01680
   70          1     0.00961
   71          1     0.00531
   72          1     0.01009
   73          1     0.01929
   74          3     0.01583
   76          1     0.00805
   78          1     0.01320
   79          1     0.00578
   81          2     0.00830
   82          1     0.00529
   83          1     0.00594
   86          1     0.00555
   87          1     0.00587
   88          1     0.00530
   89          1     0.01092
   91          1     0.01504
   92          2     0.00953
   93          1     0.00743
   95          2     0.01025
   97          1     0.00591
   98          1     0.01601
   99          1     0.01756
  100          1     0.00727
  101          1     0.00849
  102          1     0.00515
  104          3     0.00711
  106          3     0.00581
  108          1     0.00574
  110          1     0.00596
  111          2     0.01509
  112          1     0.00625
  113          1     0.00585
  114          2     0.03733
  116          2     0.00720
  119          2     0.00756
  121          3     0.01338
  122          2     0.00820
  124          1     0.00581
  125          2     0.00655
  126          2     0.02856
  127          2     0.00574
  128          2     0.00563
  130          1     0.00594
  131          2     0.01244
  132          2     0.00581
  133          5     0.02134
  134          4     0.00831
  135          1     0.02557
  136          2     0.01969
  137          1     0.01523
  138          3     0.01128
  139          1     0.01238
  140          3     0.02365
  141          4     0.02653
  142          1     0.00549
  143          1     0.00920
  144          3     0.01956
  145          2     0.00589
  146          3     0.02245
  147          3     0.01335
  148          3     0.01027
  149          1     0.02252
  150          1     0.00563
  151          2     0.00868
  152          1     0.00937
  153          1     0.00608
  154          4     0.01229
  155          1     0.00551
  156          6     0.01428
  157          5     0.01406
  158          3     0.01380
  159          3     0.01941
  160          8     0.02922
  161          2     0.00613
  162          2     0.01536
  163          1     0.00553
  164          2     0.00631
  165          4     0.03914
  166          4     0.01903
  167          3     0.01623
  168          3     0.02439
  169          3     0.02590
  170          3     0.00662
  171          1     0.00628
  172          1     0.01034
  173          5     0.01545
  174          3     0.02030
  175          3     0.01025
  176          5     0.01080
  177          4     0.02185
  178          2     0.00624
  179          5     0.01955
  180          5     0.00652
  181          3     0.01193
  182          3     0.01176
  184          5     0.03079
  185          4     0.01873
  186          6     0.01669
  187          4     0.01512
  188          5     0.01809
  189          4     0.01492
  190          4     0.05169
  191          1     0.01165
  193          6     0.02351
  194          3     0.00673
  195          2     0.00881
  196          4     0.00850
  197          2     0.00904
  198          1     0.01156
  199          2     0.01157
  200          8     0.02286
  201          2     0.00953
  202          2     0.01327
  203          7     0.02657
  204          7     0.01888
  205          3     0.00764
  206          4     0.00877
  207          3     0.01505
  208          4     0.01159
  209          5     0.02552
  210          8     0.02428
  211          6     0.02512
  212          4     0.01020
  213          4     0.01782
  214          5     0.01047
  215          9     0.03507
  216          6     0.01298
  217          5     0.01173
  218          5     0.01920
  219          6     0.02025
  220          7     0.02295
  221          6     0.02166
  222          3     0.00767
  223          6     0.02170
  224          2     0.01471
  225          3     0.01938
  226          5     0.01230
  227          3     0.02450
  228          4     0.01235
  229          7     0.02111
  230         13     0.03279
  231          7     0.02357
  232          4     0.00801
  233          5     0.01889
  234          7     0.02092
  235          3     0.00806
  236          6     0.01314
  237          3     0.00782
  238          6     0.00954
  239          6     0.01358
  240          3     0.01077
  241          6     0.01738
  242          8     0.02199
  243          8     0.03948
  244          9     0.01258
  245          9     0.02573
  246          6     0.00661
  247         13     0.04031
  248          3     0.01953
  249          8     0.01575
  250          5     0.01299
  251          8     0.00744
  252          8     0.01620
  253         10     0.01828
  254          4     0.00817
  255          5     0.01304
  256          6     0.01938
  257          8     0.01891
  258          9     0.04077
  259          9     0.01747
  260         12     0.02862
  261          8     0.01670
  262          3     0.00657
  263          6     0.02363
  264          2     0.00581
  265         11     0.01894
  266          7     0.02061
  267         11     0.01765
  268          9     0.02890
  269          7     0.01326
  270          8     0.00692
  271          6     0.01557
  272          8     0.04564
  273         11     0.02006
  274          8     0.02792
  275          5     0.01350
  276          7     0.04729
  277          6     0.01521
  278         10     0.04023
  279          4     0.01282
  280         10     0.03624
  281         12     0.02480
  282          5     0.00635
  283         12     0.01268
  284          8     0.00738
  285          6     0.02006
  286          5     0.00699
  287          8     0.02556
  288          4     0.02547
  289          8     0.01707
  290         12     0.05763
  291          8     0.02655
  292         15     0.02596
  293          8     0.00741
  294          9     0.03930
  295          7     0.00692
  296          8     0.02528
  297         10     0.01943
  298          8     0.02186
  299         10     0.03940
  300          8     0.01610
  301          6     0.01820
  302          5     0.01088
  303         14     0.04978
  304          7     0.00946
  305          7     0.01534
  306          8     0.01510
  307          8     0.01500
  308         12     0.03681
  309         13     0.03565
  310          7     0.01760
  311         15     0.01920
  312          6     0.01415
  313         12     0.02186
  314         11     0.02863
  315          8     0.02647
  316          9     0.02227
  317          6     0.00732
  318          7     0.01268
  319         10     0.02340
  320         11     0.02197
  321          9     0.02041
  322         13     0.02571
  323         10     0.01285
  324          8     0.01762
  325         11     0.02003
  326         16     0.06203
  327         18     0.01864
  328         12     0.03295
  329          7     0.01669
  330         12     0.01744
  331          7     0.02536
  332         13     0.02985
  333         10     0.03196
  334          9     0.01431
  335         12     0.01625
  336         12     0.01464
  337         11     0.00921
  338          9     0.01677
  339         11     0.02302
  340          9     0.02950
  341         12     0.02679
  342          8     0.02179
  343         12     0.02248
  344         17     0.01266
  345         17     0.03216
  346          7     0.00803
  347         13     0.02556
  348         12     0.02426
  349         17     0.02611
  350          9     0.02297
  351         12     0.01115
  352         15     0.02223
  353         12     0.01003
  354         15     0.03498
  355         18     0.03242
  356         16     0.01620
  357         15     0.03868
  358         10     0.02213
  359          8     0.01384
  360         19     0.02538
  361         15     0.02856
  362         18     0.01829
  363         12     0.01345
  364         15     0.02415
  365         13     0.01405
  366         26     0.02979
  367         22     0.01654
  368         16     0.02662
  369         12     0.04409
  370         19     0.03494
  371         19     0.03095
  372         21     0.01952
  373         16     0.02998
  374         14     0.02405
  375         20     0.03558
  376         14     0.02231
  377         17     0.02857
  378          7     0.01444
  379         13     0.03409
  380         20     0.02038
  381         11     0.01144
  382         11     0.01290
  383         14     0.02822
  384         15     0.01913
  385         16     0.02324
  386         19     0.02568
  387         23     0.04508
  388         26     0.03013
  389         18     0.05349
  390         18     0.01946
  391         13     0.01410
  392         19     0.02587
  393         18     0.01878
  394         16     0.01582
  395         13     0.01939
  396         19     0.02462
  397         26     0.02908
  398         11     0.02491
  399         13     0.03121
  400         20     0.01476
  401         17     0.02935
  402         17     0.02417
  403         24     0.03481
  404         20     0.01768
  405         23     0.01727
  406         20     0.03674
  407         20     0.05471
  408         16     0.02456
  409         16     0.04688
  410         22     0.04109
  411         17     0.01271
  412         18     0.03819
  413         17     0.04031
  414         26     0.02315
  415         20     0.03128
  416         30     0.02768
  417         24     0.05529
  418         23     0.02585
  419         22     0.01861
  420         31     0.03234
  421         18     0.02553
  422         25     0.05403
  423         23     0.02354
  424         23     0.03406
  425         25     0.03586
  426         22     0.04736
  427         16     0.02924
  428         24     0.02973
  429         18     0.03302
  430         24     0.02988
  431         21     0.03468
  432         20     0.03535
  433         18     0.02047
  434         34     0.04842
  435         28     0.02838
  436         20     0.03053
  437         22     0.03064
  438         24     0.01915
  439         29     0.04082
  440         21     0.03459
  441         27     0.02046
  442         25     0.04082
  443         25     0.01459
  444         19     0.03809
  445         34     0.03632
  446         22     0.03198
  447         21     0.03502
  448         21     0.01998
  449         27     0.03385
  450         29     0.03232
  451         28     0.03634
  452         18     0.02128
  453         25     0.02010
  454         29     0.04318
  455         31     0.02490
  456         24     0.02677
  457         41     0.06735
  458         30     0.03205
  459         28     0.02372
  460         26     0.02612
  461         25     0.01554
  462         30     0.05287
  463         26     0.02241
  464         21     0.02339
  465         35     0.02427
  466         31     0.03085
  467         27     0.01756
  468         31     0.04554
  469         32     0.05722
  470         30     0.01882
  471         26     0.04578
  472         25     0.07050
  473         25     0.02156
  474         26     0.02535
  475         18     0.01940
  476         35     0.05244
  477         41     0.04567
  478         25     0.03463
  479         20     0.03146
  480         32     0.03766
  481         20     0.03314
  482         30     0.03332
  483         35     0.03275
  484         24     0.01421
  485         29     0.02636
  486         29     0.03187
  487         38     0.02252
  488         29     0.03986
  489         24     0.02883
  490         29     0.01804
  491         36     0.03547
  492         16     0.01358
  493         19     0.01371
  494         27     0.03228
  495         32     0.01671
  496         21     0.00980
  497         23     0.04328
  498         28     0.02249
  499         31     0.02481
  500         27     0.01537
  501         33     0.02739
  502         39     0.11313
  503         33     0.02992
  504         34     0.03344
  505         36     0.02880
  506         31     0.03055
  507         26     0.08275
  508         32     0.02178
  509         34     0.04858
  510         33     0.05675
  511         34     0.04375
  512         34     0.01812
  513         33     0.03620
  514         34     0.02617
  515         31     0.05677
  516         33     0.03486
  517         36     0.03470
  518         32     0.03547
  519         41     0.05180
  520         27     0.02697
  521         37     0.02708
  522         43     0.02890
  523         31     0.02885
  524         39     0.04485
  525         29     0.03452
  526         27     0.03574
  527         33     0.03911
  528         33     0.02601
  529         56     0.05074
  530         31     0.04450
  531         33     0.02967
  532         34     0.04228
  533         39     0.05187
  534         36     0.03247
  535         33     0.02097
  536         26     0.01888
  537         44     0.04211
  538         30     0.02428
  539         35     0.04044
  540         46     0.05248
  541         33     0.04302
  542         31     0.02686
  543         34     0.05471
  544         38     0.03983
  545         29     0.03258
  546         38     0.03033
  547         35     0.04818
  548         42     0.02736
  549         33     0.01506
  550         38     0.04267
  551         36     0.03492
  552         31     0.01906
  553         38     0.07717
  554         42     0.04704
  555         37     0.02618
  556         38     0.03774
  557         46     0.05588
  558         45     0.04905
  559         35     0.03420
  560         42     0.03754
  561         42     0.04725
  562         34     0.02123
  563         38     0.03481
  564         28     0.04029
  565         35     0.02627
  566         43     0.03255
  567         45     0.04647
  568         42     0.03827
  569         33     0.03511
  570         41     0.03143
  571         55     0.06417
  572         44     0.03957
  573         38     0.03977
  574         48     0.05424
  575         40     0.04573
  576         54     0.03509
  577         45     0.03818
  578         54     0.05371
  579         44     0.04117
  580         53     0.02972
  581         40     0.03825
  582         54     0.02503
  583         47     0.05150
  584         41     0.05311
  585         38     0.04063
  586         35     0.06126
  587         44     0.06008
  588         51     0.07448
  589         39     0.04286
  590         44     0.03159
  591         44     0.05128
  592         46     0.03846
  593         38     0.02910
  594         48     0.03421
  595         45     0.03994
  596         42     0.02786
  597         45     0.02917
  598         45     0.03139
  599         44     0.02931
  600         39     0.03818
  601         46     0.02465
  602         45     0.03631
  603         46     0.04066
  604         47     0.03094
  605         58     0.02347
  606         37     0.03193
  607         50     0.03968
  608         46     0.03395
  609         51     0.02656
  610         40     0.02391
  611         39     0.03438
  612         47     0.04462
  613         50     0.05894
  614         55     0.04581
  615         46     0.02772
  616         49     0.06021
  617         53     0.05439
  618         53     0.04798
  619         32     0.03788
  620         54     0.04913
  621         46     0.04156
  622         46     0.03472
  623         40     0.01894
  624         48     0.04161
  625         58     0.04280
  626         56     0.04177
  627         59     0.02952
  628         60     0.03361
  629         42     0.02753
  630         45     0.03685
  631         42     0.03027
  632         52     0.04150
  633         52     0.03881
  634         41     0.03623
  635         52     0.04258
  636         60     0.03506
  637         49     0.02040
  638         43     0.02139
  639         46     0.03085
  640         48     0.02612
  641         50     0.03340
  642         47     0.06299
  643         54     0.05037
  644         50     0.06417
  645         46     0.04679
  646         47     0.04217
  647         44     0.02282
  648         58     0.02275
  649         40     0.01940
  650         51     0.03735
  651         55     0.04886
  652         61     0.03784
  653         49     0.05067
  654         54     0.03760
  655         61     0.06472
  656         58     0.04389
  657         52     0.03908
  658         44     0.02260
  659         46     0.03892
  660         53     0.04395
  661         42     0.02225
  662         46     0.03577
  663         62     0.03815
  664         47     0.03419
  665         46     0.04137
  666         55     0.04591
  667         60     0.03773
  668         60     0.04702
  669         47     0.03343
  670         53     0.03308
  671         52     0.03104
  672         55     0.03056
  673         62     0.05594
  674         69     0.03814
  675         43     0.03873
  676         52     0.04226
  677         48     0.03606
  678         60     0.04808
  679         50     0.03747
  680         59     0.02388
  681         51     0.03381
  682         53     0.03598
  683         49     0.02025
  684         65     0.04837
  685         56     0.04203
  686         57     0.03477
  687         37     0.03364
  688         55     0.04500
  689         65     0.05238
  690         61     0.02709
  691         58     0.02907
  692         45     0.01913
  693         55     0.04013
  694         65     0.02629
  695         67     0.03997
  696         46     0.02747
  697         47     0.04343
  698         51     0.04032
  699         48     0.03078
  700         53     0.05037
  701         56     0.02541
  702         50     0.03686
  703         67     0.04742
  704         53     0.03344
  705         62     0.05555
  706         63     0.06960
  707         57     0.05849
  708         47     0.05668
  709         54     0.05523
  710         49     0.03494
  711         51     0.06189
  712         58     0.03795
  713         54     0.04052
  714         58     0.03310
  715         56     0.03522
  716         50     0.02345
  717         47     0.05927
  718         55     0.03877
  719         68     0.03991
  720         41     0.02828
  721         56     0.03839
  722         51     0.02156
  723         45     0.03438
  724         63     0.04564
  725         52     0.04370
  726         48     0.03852
  727         58     0.02488
  728         52     0.02735
  729         50     0.04083
  730         54     0.03184
  731         53     0.04129
  732         50     0.05639
  733         62     0.02765
  734         63     0.03841
  735         66     0.03994
  736         58     0.04582
  737         55     0.02546
  738         71     0.04403
  739         61     0.03076
  740         45     0.01653
  741         60     0.04868
  742         54     0.03362
  743         51     0.03720
  744         58     0.04720
  745         62     0.05860
  746         48     0.03654
  747         55     0.03560
  748         57     0.03369
  749         54     0.03420
  750         64     0.03597
  751         53     0.03156
  752         48     0.02128
  753         56     0.05103
  754         57     0.02770
  755         57     0.03494
  756         57     0.03605
  757         51     0.03988
  758         51     0.03433
  759         51     0.04009
  760         51     0.02696
  761         47     0.03236
  762         60     0.05517
  763         56     0.04036
  764         56     0.04023
  765         54     0.03991
  766         50     0.03914
  767         63     0.02361
  768         51     0.03729
  769         63     0.03755
  770         59     0.05188
  771         58     0.02815
  772         45     0.03006
  773         56     0.05519
  774         65     0.06073
  775         52     0.02877
  776         44     0.02300
  777         57     0.04727
  778         61     0.02910
  779         67     0.03226
  780         72     0.03329
  781         59     0.03644
  782         62     0.05827
  783         34     0.03653
  784         56     0.02854
  785         51     0.02819
  786         58     0.02673
  787         51     0.02294
  788         67     0.03382
  789         45     0.03421
  790         55     0.02347
  791         38     0.02107
  792         61     0.03194
  793         43     0.02827
  794         39     0.01156
  795         52     0.03026
  796         64     0.04984
  797         49     0.03860
  798         44     0.03315
  799         37     0.02639
  800         58     0.04519
  801         50     0.02435
  802         33     0.02571
  803         52     0.04851
  804         71     0.03797
  805         47     0.04081
  806         51     0.03644
  807         59     0.03483
  808         54     0.03602
  809         55     0.02902
  810         49     0.03474
  811         49     0.03104
  812         43     0.01633
  813         55     0.04466
  814         52     0.02767
  815         50     0.02806
  816         59     0.05058
  817         46     0.02249
  818         54     0.04155
  819         57     0.03039
  820         53     0.04568
  821         66     0.04528
  822         47     0.02928
  823         57     0.03432
  824         54     0.04587
  825         43     0.02982
  826         54     0.03417
  827         64     0.05185
  828         53     0.03688
  829         77     0.02676
  830         49     0.01991
  831         56     0.03308
  832         39     0.02690
  833         58     0.05557
  834         50     0.04126
  835         46     0.02757
  836         57     0.03867
  837         58     0.05073
  838         56     0.03428
  839         55     0.03151
  840         59     0.03839
  841         70     0.03100
  842         58     0.04354
  843         52     0.02232
  844         50     0.04598
  845         54     0.02876
  846         52     0.03990
  847         49     0.02409
  848         52     0.02927
  849         43     0.02221
  850         55     0.04596
  851         49     0.03426
  852         66     0.04023
  853         44     0.02811
  854         70     0.04777
  855         55     0.02125
  856         52     0.03589
  857         43     0.04154
  858         51     0.04687
  859         60     0.03560
  860         53     0.03465
  861         55     0.04275
  862         51     0.02526
  863         51     0.02613
  864         45     0.02172
  865         49     0.02751
  866         42     0.03557
  867         54     0.02537
  868         39     0.01853
  869         50     0.02447
  870         55     0.03417
  871         51     0.04181
  872         44     0.03796
  873         43     0.03177
  874         46     0.03310
  875         48     0.02912
  876         53     0.04000
  877         47     0.03158
  878         37     0.02283
  879         52     0.03400
  880         48     0.04040
  881         53     0.04002
  882         46     0.02429
  883         47     0.03428
  884         54     0.03533
  885         59     0.04366
  886         51     0.03356
  887         40     0.01963
  888         54     0.02233
  889         54     0.04868
  890         49     0.03138
  891         47     0.03393
  892         53     0.02695
  893         68     0.05536
  894         52     0.02986
  895         63     0.02380
  896         51     0.03880
  897         57     0.04573
  898         53     0.04802
  899         57     0.02521
  900         66     0.02766
  901         50     0.02302
  902         50     0.01575
  903         41     0.02293
  904         58     0.04240
  905         42     0.02031
  906         47     0.03656
  907         66     0.03205
  908         50     0.02474
  909         47     0.02270
  910         54     0.03931
  911         57     0.02750
  912         49     0.04694
  913         53     0.02923
  914         53     0.02564
  915         38     0.03379
  916         41     0.03747
  917         35     0.01930
  918         41     0.01984
  919         47     0.03621
  920         44     0.04449
  921         45     0.02658
  922         43     0.02404
  923         49     0.01764
  924         46     0.03305
  925         43     0.02033
  926         39     0.02539
  927         48     0.02308
  928         56     0.04115
  929         42     0.02805
  930         62     0.02998
  931         35     0.02125
  932         45     0.01831
  933         60     0.03783
  934         41     0.02915
  935         48     0.03474
  936         49     0.04184
  937         47     0.02432
  938         40     0.01879
  939         62     0.03639
  940         42     0.01916
  941         51     0.03131
  942         53     0.03755
  943         52     0.03000
  944         46     0.02832
  945         49     0.03752
  946         56     0.01976
  947         48     0.04136
  948         52     0.04416
  949         52     0.04042
  950         54     0.03561
  951         53     0.02076
  952         63     0.03402
  953         35     0.02725
  954         57     0.03962
  955         54     0.02457
  956         47     0.03182
  957         42     0.03275
  958         45     0.03580
  959         51     0.03314
  960         43     0.02020
  961         42     0.03453
  962         49     0.03007
  963         45     0.02228
  964         52     0.03233
  965         30     0.01890
  966         43     0.03612
  967         49     0.02351
  968         52     0.03222
  969         53     0.04967
  970         47     0.02472
  971         53     0.02289
  972         49     0.02585
  973         51     0.04975
  974         45     0.03200
  975         43     0.01835
  976         47     0.02569
  977         40     0.02153
  978         38     0.03912
  979         52     0.01770
  980         43     0.03175
  981         51     0.03289
  982         37     0.01922
  983         39     0.02151
  984         42     0.03024
  985         43     0.03175
  986         37     0.01702
  987         32     0.02023
  988         36     0.01429
  989         41     0.02345
  990         50     0.02656
  991         36     0.01560
  992         29     0.02793
  993         50     0.01892
  994         41     0.01872
  995         51     0.01981
  996         40     0.04418
  997         34     0.01935
  998         44     0.01380
  999         59     0.02207
 1000         48     0.03424
 1001         39     0.01726
 1002         42     0.02512
 1003         38     0.01958
 1004         32     0.02674
 1005         31     0.02082
 1006         44     0.01908
 1007         33     0.01687
 1008         38     0.02372
 1009         40     0.02874
 1010         37     0.01590
 1011         42     0.02475
 1012         31     0.01997
 1013         44     0.02825
 1014         41     0.02357
 1015         30     0.03001
 1016         37     0.02428
 1017         42     0.02317
 1018         40     0.02527
 1019         47     0.01873
 1020         30     0.01731
 1021         38     0.02927
 1022         29     0.01739
 1023         41     0.02431
 1024         26     0.02343
 1025         29     0.01448
 1026         31     0.02786
 1027         50     0.01909
 1028         49     0.02727
 1029         43     0.02874
 1030         44     0.02059
 1031         43     0.02733
 1032         41     0.02584
 1033         40     0.02101
 1034         32     0.02435
 1035         34     0.02355
 1036         30     0.02163
 1037         42     0.04605
 1038         29     0.02212
 1039         30     0.01822
 1040         32     0.03457
 1041         36     0.02987
 1042         38     0.03564
 1043         33     0.04168
 1044         38     0.02716
 1045         21     0.03173
 1046         38     0.03655
 1047         37     0.03409
 1048         36     0.03744
 1049         25     0.02771
 1050         34     0.03211
 1051         33     0.04285
 1052         30     0.02891
 1053         32     0.02642
 1054         44     0.02096
 1055         31     0.02963
 1056         38     0.02383
 1057         36     0.04354
 1058         31     0.02457
 1059         44     0.02520
 1060         35     0.01670
 1061         36     0.03146
 1062         43     0.02170
 1063         34     0.02202
 1064         24     0.02105
 1065         24     0.01971
 1066         26     0.01273
 1067         32     0.02344
 1068         27     0.02004
 1069         29     0.01930
 1070         38     0.03134
 1071         43     0.04034
 1072         34     0.02158
 1073         25     0.02459
 1074         31     0.01853
 1075         34     0.02675
 1076         33     0.02452
 1077         48     0.04140
 1078         40     0.02695
 1079         39     0.02058
 1080         34     0.02999
 1081         32     0.02424
 1082         33     0.03022
 1083         28     0.03007
 1084         40     0.01411
 1085         30     0.01660
 1086         37     0.03130
 1087         32     0.02171
 1088         35     0.02320
 1089         35     0.01979
 1090         30     0.02618
 1091         35     0.02360
 1092         20     0.01806
 1093         33     0.01359
 1094         28     0.01916
 1095         36     0.02313
 1096         44     0.03327
 1097         47     0.01299
 1098         32     0.03218
 1099         28     0.02392
 1100         37     0.01798
 1101         25     0.01841
 1102         35     0.01829
 1103         29     0.02947
 1104         27     0.02210
 1105         28     0.01918
 1106         29     0.02082
 1107         35     0.01693
 1108         27     0.02684
 1109         24     0.02633
 1110         38     0.03054
 1111         28     0.01940
 1112         27     0.01812
 1113         42     0.01943
 1114         24     0.01521
 1115         34     0.02894
 1116         32     0.01922
 1117         30     0.02519
 1118         37     0.02095
 1119         27     0.02085
 1120         24     0.02145
 1121         18     0.01359
 1122         26     0.02437
 1123         26     0.01644
 1124         24     0.01636
 1125         30     0.03832
 1126         35     0.03231
 1127         37     0.03872
 1128         27     0.02426
 1129         26     0.01544
 1130         31     0.01528
 1131         21     0.01285
 1132         27     0.02270
 1133         29     0.01367
 1134         32     0.02626
 1135         34     0.02343
 1136         32     0.02271
 1137         25     0.01861
 1138         28     0.02948
 1139         24     0.01116
 1140         33     0.02879
 1141         27     0.01872
 1142         25     0.03371
 1143         24     0.01909
 1144         21     0.01190
 1145         27     0.03224
 1146         27     0.01541
 1147         39     0.03982
 1148         25     0.03359
 1149         17     0.02162
 1150         24     0.02353
 1151         32     0.02808
 1152         24     0.01924
 1153         24     0.01762
 1154         29     0.01262
 1155         26     0.02924
 1156         16     0.01138
 1157         31     0.01702
 1158         29     0.01622
 1159         26     0.01673
 1160         29     0.02443
 1161         23     0.02312
 1162         23     0.01629
 1163         29     0.02002
 1164         33     0.03222
 1165         27     0.02894
 1166         17     0.01332
 1167         38     0.02667
 1168         31     0.03055
 1169         24     0.01834
 1170         29     0.01606
 1171         23     0.01277
 1172         26     0.03281
 1173         18     0.00910
 1174         25     0.03048
 1175         30     0.02222
 1176         20     0.01958
 1177         30     0.01513
 1178         20     0.01498
 1179         26     0.01032
 1180         23     0.02963
 1181         20     0.01067
 1182         30     0.01499
 1183         20     0.02047
 1184         27     0.02271
 1185         21     0.01624
 1186         16     0.01446
 1187         24     0.01238
 1188         21     0.01828
 1189         25     0.01587
 1190         30     0.01776
 1191         27     0.02181
 1192         21     0.00930
 1193         22     0.01855
 1194         20     0.01955
 1195         17     0.02938
 1196         24     0.02606
 1197         23     0.01992
 1198         20     0.02357
 1199         24     0.01541
 1200         18     0.02082
 1201         22     0.03025
 1202         18     0.01716
 1203         22     0.01388
 1204         25     0.01927
 1205         25     0.02926
 1206         24     0.02630
 1207         20     0.01232
 1208         24     0.01519
 1209         26     0.02327
 1210         26     0.02224
 1211         22     0.03856
 1212         20     0.02210
 1213         25     0.01874
 1214         25     0.03542
 1215         21     0.02261
 1216         23     0.01794
 1217         25     0.01599
 1218         16     0.02035
 1219         16     0.01113
 1220         26     0.01894
 1221         20     0.01592
 1222         27     0.02421
 1223         25     0.01645
 1224         31     0.02037
 1225         10     0.01309
 1226         21     0.01696
 1227         24     0.01212
 1228         21     0.02226
 1229         23     0.02126
 1230         22     0.01716
 1231         19     0.02129
 1232         21     0.02880
 1233         18     0.00966
 1234         21     0.03215
 1235         21     0.01809
 1236         23     0.03865
 1237         26     0.01114
 1238         24     0.02127
 1239         12     0.03299
 1240         26     0.01824
 1241         18     0.01851
 1242         25     0.02292
 1243         16     0.01197
 1244         21     0.03946
 1245         23     0.01552
 1246         13     0.00882
 1247         23     0.03135
 1248         12     0.01050
 1249         22     0.01281
 1250         18     0.02668
 1251         24     0.01407
 1252         18     0.02256
 1253         34     0.03458
 1254         25     0.01933
 1255         25     0.01750
 1256         10     0.01073
 1257         15     0.01200
 1258         27     0.01904
 1259         23     0.01820
 1260         16     0.01007
 1261         16     0.01504
 1262         16     0.01494
 1263         12     0.01647
 1264         22     0.05007
 1265         16     0.01808
 1266         19     0.03263
 1267         21     0.02126
 1268         28     0.02582
 1269         13     0.01396
 1270         18     0.01990
 1271         19     0.01609
 1272         24     0.02330
 1273         18     0.00978
 1274         12     0.01737
 1275         17     0.02190
 1276         17     0.02337
 1277         21     0.03181
 1278         12     0.02476
 1279         14     0.00729
 1280         19     0.01869
 1281         17     0.01932
 1282         15     0.01819
 1283         24     0.03576
 1284         18     0.01924
 1285         22     0.01607
 1286         14     0.00954
 1287         20     0.02223
 1288         22     0.01211
 1289         19     0.01629
 1290         23     0.02763
 1291         18     0.01296
 1292         22     0.01359
 1293         22     0.02444
 1294         13     0.00872
 1295         22     0.01171
 1296         27     0.02700
 1297         10     0.01369
 1298         20     0.01871
 1299         11     0.00984
 1300         18     0.00888
 1301         23     0.02113
 1302         22     0.01773
 1303         18     0.01029
 1304         15     0.01159
 1305          8     0.01128
 1306         16     0.01515
 1307         16     0.02359
 1308         16     0.01323
 1309         17     0.01531
 1310         22     0.01866
 1311         19     0.01686
 1312         14     0.01717
 1313         24     0.01881
 1314         22     0.02514
 1315         14     0.01295
 1316         19     0.01782
 1317         21     0.01047
 1318         21     0.02686
 1319         13     0.01327
 1320         23     0.02408
 1321         26     0.01501
 1322         17     0.01542
 1323         15     0.01094
 1324         11     0.01091
 1325         18     0.01185
 1326         20     0.01402
 1327         11     0.00811
 1328         24     0.00889
 1329          7     0.00943
 1330          6     0.00817
 1331         12     0.00689
 1332         20     0.02076
 1333         14     0.01173
 1334         13     0.01560
 1335         15     0.01624
 1336         12     0.00922
 1337         16     0.02127
 1338         18     0.01619
 1339         13     0.02628
 1340         10     0.01616
 1341         14     0.00953
 1342         15     0.01018
 1343         15     0.01231
 1344         14     0.01270
 1345         17     0.01333
 1346         14     0.01953
 1347         14     0.00996
 1348         21     0.01325
 1349         15     0.01117
 1350         20     0.00983
 1351         14     0.01050
 1352          9     0.00857
 1353         15     0.01614
 1354          8     0.01414
 1355         12     0.01139
 1356          8     0.00719
[...]
 2332          1     0.00562
 2336          1     0.00897
 2337          1     0.01425
 2338          3     0.00607
 2339          1     0.00613
 2340          2     0.00615
 2341          1     0.00546
 2342          1     0.00557
 2343          1     0.00586
 2344          2     0.00884
 2347          1     0.00563
 2348          1     0.00617
 2349          3     0.00599
 2350          2     0.00572
 2351          1     0.00575
 2352          2     0.02317
 2354          2     0.00622
 2360          1     0.00572
 2361          2     0.00826
 2362          2     0.00619
 2364          1     0.00600
 2367          2     0.00559
 2369          1     0.00561
 2370          2     0.00600
 2373          1     0.01070
 2375          2     0.00609
 2377          1     0.01370
 2379          2     0.00664
 2381          1     0.00567
 2383          1     0.00622
 2386          2     0.01848
 2387          2     0.00894
 2388          2     0.00634
 2389          3     0.01247
 2392          1     0.00634
 2394          1     0.00534
 2396          1     0.00535
 2398          2     0.00657
 2399          1     0.00619
 2400          3     0.02149
 2401          1     0.00554
 2402          1     0.01841
 2404          2     0.00607
 2405          2     0.00590
 2406          3     0.00590
 2408          2     0.01354
 2410          1     0.01574
 2411          2     0.01518
 2412          3     0.00697
 2415          2     0.00647
 2417          1     0.00572
 2418          1     0.00595
 2421          2     0.00906
 2422          1     0.01147
 2423          1     0.00884
 2424          2     0.00949
 2426          1     0.00597
 2427          1     0.00602
 2429          1     0.01142
 2430          3     0.01005
 2431          1     0.00633
 2434          1     0.00716
 2435          1     0.00648
 2437          2     0.00626
 2440          1     0.00579
 2441          1     0.00593
 2442          2     0.00632
 2447          2     0.00602
 2449          1     0.01271
 2450          1     0.00587
 2451          1     0.01494
 2452          2     0.01034
 2453          1     0.00600
 2454          4     0.00604
 2457          1     0.00619
 2458          2     0.00624
 2460          2     0.00609
 2462          2     0.00614
 2463          1     0.00573
 2464          2     0.00628
 2466          1     0.00666
 2467          3     0.00717
 2469          1     0.00593
 2471          1     0.00600
 2474          1     0.00609
 2475          2     0.00940
 2477          1     0.00630
 2480          2     0.00575
 2481          1     0.00860
 2484          2     0.01453
 2485          1     0.00612
 2487          1     0.00589
 2488          1     0.01230
 2491          1     0.00574
 2493          1     0.00554
 2494          2     0.00617
 2495          3     0.00898
 2496          1     0.00553
 2498          1     0.00601
 2505          2     0.00595
 2514          1     0.00563
 2518          1     0.00579
 2530          4     0.00618
 2531          1     0.00553
 2533          1     0.01006
 2538          1     0.01009
 2540          1     0.00600
 2541          1     0.00513
 2546          1     0.00601
 2549          1     0.00591
 2552          2     0.00586
 2555          1     0.00612
 2559          1     0.00600
 2560          2     0.01107
 2561          2     0.00610
 2562          1     0.00690
 2571          1     0.00573
 2574          1     0.00594
 2589          1     0.00601
 2593          1     0.00559
 2600          1     0.00605
 2601          2     0.01043
 2603          1     0.00604
 2606          1     0.00859
 2607          1     0.00602
 2612          1     0.00985
 2615          1     0.00584
 2619          1     0.00543
 2623          1     0.00909
 2625          1     0.01205
 2626          1     0.00598
 2628          1     0.00536
 2634          1     0.00592
 2635          1     0.00569
 2638          1     0.00553
 2641          1     0.00552
 2642          1     0.00521
 2644          1     0.00705
 2645          1     0.00603
 2646          1     0.00558
 2648          1     0.00530
 2649          1     0.00972
 2651          1     0.00601
 2655          1     0.00528
 2657          1     0.00578
 2660          1     0.07359
 2663          1     0.00864
 2669          1     0.00619
 2671          1     0.00571
 2672          1     0.00604
 2680          1     0.00982
 2689          1     0.01048
 2692          1     0.00593
 2693          1     0.00595
 2702          1     0.00553
 2703          1     0.00597
 2713          1     0.00573
 2719          1     0.00822
 2721          1     0.00581
 2723          2     0.00537
 2731          1     0.00877
 2738          1     0.00594
 2741          1     0.00835
 2742          1     0.00538
 2745          1     0.00829
 2747          1     0.00557
 2762          1     0.00947
 2777          1     0.00570
 2778          1     0.00607
 2780          1     0.01007
 2781          1     0.00660
 2783          1     0.00568
 2786          1     0.01092
 2787          1     0.00558
 2797          1     0.00630
 2800          1     0.00568
 2802          1     0.00606
 2804          1     0.00604
 2808          2     0.00586
 2817          1     0.00574
 2834          1     0.00582
 2846          2     0.01936
 2851          1     0.00590
 2855          1     0.00624
 2867          2     0.01765
 2870          1     0.00724
 2893          1     0.00672
 2906          1     0.00650
 2908          2     0.00932
 2915          1     0.00711
 2917          1     0.00644
 2930          1     0.00891
 2943          1     0.00646
 2962          1     0.00590
 2975          1     0.00606
 2992          1     0.00614
 2993          1     0.00845
 2996          1     0.00562
 2997          1     0.00631
 3001          1     0.01519
 3036          1     0.00594
 3046          1     0.00550
 3050          1     0.00597
 3052          1     0.00585
 3059          2     0.01153
 3060          1     0.00597
 3064          1     0.00558
 3067          1     0.00543
 3068          1     0.00591
 3082          1     0.00959
 3115          1     0.00624
 3159          1     0.01077
 3162          1     0.00602
 3180          1     0.00578
 3181          1     0.01230
 3227          1     0.00636
 3245          1     0.00601
 3273          1     0.00627
 3295          1     0.00562
 3296          1     0.01281
 3307          1     0.00626
 3314          1     0.00537
 3315          1     0.00533
 3324          1     0.00569
 3351          1     0.00578
 3359          1     0.00611
 3373          1     0.01229
 3377          1     0.01006
 3382          2     0.01103
 3393          1     0.01397
 3405          2     0.00564
 3419          1     0.00606
 3425          1     0.00669
 3431          1     0.00558
 3439          1     0.00577
 3460          1     0.01176
 3466          1     0.00874
 3470          1     0.00612
 3475          1     0.00540
 3492          1     0.00632
 3515          1     0.00623
 3530          1     0.00635
 3546          1     0.00643
 3547          1     0.00559
 3549          1     0.00577
 3551          1     0.00634
 3568          1     0.00605
 3573          1     0.00554
 3583          1     0.00577
 3607          1     0.00594
 3608          1     0.00841
 3613          1     0.00621
 3630          1     0.00601
 3648          1     0.00630
 3656          1     0.00528
took 2405 iterations
Trial Time:          0.07929
    0          1     0.01728
  200          1     0.00596
  204          1     0.00588
  232          1     0.00548
took 4 iterations
Trial Time:          0.00049
    0          1     0.02794
   44          1     0.01556
   61          1     0.01384
   69          1     0.01044
   71          1     0.00609
  105          1     0.00799
  107          1     0.00576
  108          1     0.00581
  126          1     0.03880
  143          1     0.00705
  146          2     0.01516
  152          1     0.01326
  153          1     0.00556
  161          1     0.00621
  167          2     0.02802
  174          1     0.01554
  183          1     0.01064
  189          1     0.00875
  195          1     0.00594
  204          1     0.02026
  205          2     0.00594
  208          1     0.00574
  209          1     0.00609
  210          1     0.00530
  211          1     0.00511
  214          2     0.00616
  218          1     0.00624
  219          1     0.01541
  225          1     0.00593
  226          1     0.00843
  229          1     0.01358
  230          1     0.00609
  234          1     0.00569
  239          1     0.00604
  240          1     0.00555
  242          1     0.00561
  247          1     0.01965
  249          1     0.00630
  253          1     0.00572
  256          1     0.00872
  258          1     0.00564
  259          2     0.00603
  264          1     0.00588
  265          1     0.00582
  267          1     0.00600
  270          2     0.01546
  271          1     0.00567
  286          1     0.00600
  296          1     0.00541
  298          4     0.00850
  299          1     0.01858
  300          1     0.00882
  301          1     0.01364
  302          1     0.00557
  303          1     0.00642
  305          1     0.00562
  306          1     0.01546
  310          1     0.00955
  313          1     0.01240
  314          1     0.00975
  315          2     0.00993
  316          1     0.01038
  317          1     0.00573
  318          1     0.00769
  319          1     0.00598
  320          2     0.01631
  323          2     0.00874
  326          1     0.00598
  327          1     0.00588
  328          1     0.00584
  329          1     0.00618
  330          1     0.00879
  332          2     0.01109
  333          1     0.00852
  338          1     0.00595
  341          2     0.02407
  342          2     0.00714
  348          3     0.00884
  352          1     0.00610
  353          1     0.00564
  354          1     0.00613
  356          1     0.00599
  358          1     0.01294
  362          3     0.01928
  364          1     0.00646
  365          1     0.00566
  366          1     0.00661
  368          2     0.01281
  369          1     0.00598
  371          1     0.00582
  373          1     0.02735
  377          2     0.00993
  378          3     0.00628
  381          1     0.01050
  382          1     0.00589
  384          1     0.00563
  385          1     0.00560
  386          2     0.00581
  388          2     0.01013
  390          2     0.00606
  391          2     0.01545
  394          1     0.00622
  395          1     0.00596
  398          1     0.00582
  399          1     0.00539
  400          1     0.00582
  403          1     0.00559
  408          1     0.00540
  409          1     0.00565
  410          2     0.00544
  415          1     0.00610
  417          1     0.00700
  418          2     0.00628
  422          2     0.03177
  423          1     0.00629
  426          2     0.01077
  428          1     0.01579
  429          3     0.00573
  431          1     0.00576
  436          3     0.00690
  439          1     0.00946
  440          1     0.00599
  441          1     0.00581
  442          1     0.00591
  445          1     0.00570
  446          3     0.00948
  448          1     0.01668
  449          2     0.01555
  451          1     0.00577
  452          2     0.00606
  453          3     0.01419
  455          2     0.01487
  459          1     0.01033
  461          1     0.00639
  462          1     0.00718
  464          1     0.00633
  467          1     0.01511
  468          2     0.00653
  470          1     0.00619
  471          1     0.00515
  473          1     0.00837
  474          1     0.00572
  477          2     0.00849
  479          2     0.01200
  482          5     0.01498
  484          1     0.00590
  485          2     0.00578
  486          3     0.01060
  487          1     0.00548
  488          1     0.00531
  489          1     0.00568
  491          2     0.00589
  492          1     0.00911
  494          1     0.01355
  496          1     0.00570
  497          1     0.00645
  500          1     0.00570
  502          2     0.00594
  503          1     0.00532
  504          1     0.00785
  509          1     0.00590
  511          1     0.00548
  513          2     0.00588
  515          1     0.00567
  517          2     0.01658
  519          2     0.01085
  520          3     0.01868
  521          2     0.00873
  522          2     0.01082
  523          1     0.00565
  527          1     0.00526
  529          1     0.00610
  530          1     0.00588
  531          1     0.00544
  532          2     0.01140
  533          1     0.00534
  534          1     0.00528
  535          2     0.00895
  536          1     0.00569
  538          1     0.00532
  543          1     0.00546
  545          1     0.00570
  546          3     0.01354
  548          1     0.00598
  551          2     0.02089
  552          3     0.00601
  553          1     0.00616
  555          1     0.00925
  556          2     0.01280
  557          1     0.00591
  558          2     0.00579
  562          1     0.00554
  565          1     0.02307
  566          1     0.00701
  568          1     0.00905
  569          1     0.00671
  573          1     0.01376
  574          1     0.01046
  575          4     0.01821
  576          1     0.00867
  578          1     0.00615
  580          3     0.01140
  581          1     0.01259
  582          2     0.00600
  583          1     0.00573
  585          1     0.00896
  586          1     0.01710
  587          1     0.00605
  588          2     0.00938
  590          2     0.00793
  591          1     0.00560
  593          1     0.00583
  594          1     0.00829
  596          1     0.00911
  597          1     0.00598
  601          1     0.00566
  602          3     0.00624
  603          1     0.00536
  604          1     0.00585
  605          1     0.00573
  606          1     0.00597
  607          2     0.00612
  611          4     0.01278
  612          3     0.00848
  613          2     0.00643
  614          1     0.00579
  616          1     0.00619
  618          1     0.00594
  623          1     0.00565
  624          1     0.01088
  626          1     0.00596
  628          1     0.00642
  630          1     0.00571
  632          1     0.00562
  633          1     0.00573
  639          3     0.00614
  643          3     0.00607
  644          1     0.00851
  645          2     0.00600
  647          1     0.00567
  648          1     0.00831
  649          2     0.01368
  651          2     0.00598
  653          2     0.01053
  654          1     0.00587
  658          2     0.00912
  659          1     0.00579
  663          1     0.00781
  664          1     0.00581
  665          1     0.00915
  666          2     0.00651
  667          1     0.00597
  669          2     0.01048
  670          1     0.00632
  671          1     0.00693
  672          1     0.00695
  673          4     0.00747
  674          1     0.01823
  676          1     0.00648
  678          1     0.00570
  680          2     0.00593
  682          2     0.00829
  686          1     0.00575
  687          1     0.00579
  689          1     0.01006
  692          3     0.00550
  693          1     0.00566
  694          1     0.00602
  700          1     0.00545
  701          1     0.00849
  702          1     0.01812
  703          1     0.00593
  704          1     0.00865
  706          2     0.00652
  707          1     0.00945
  709          1     0.00586
  711          3     0.00709
  715          2     0.00583
  716          2     0.00906
  717          1     0.00590
  720          1     0.00590
  721          1     0.00537
  722          1     0.00577
  723          1     0.00564
  726          1     0.00611
  727          1     0.00564
  728          2     0.00592
  729          1     0.00587
  730          2     0.00602
  731          2     0.00583
  732          2     0.01162
  733          2     0.00593
  734          1     0.00600
  735          2     0.01076
  736          1     0.00600
  739          2     0.00671
  741          1     0.00583
  746          1     0.00567
  747          1     0.00596
  749          2     0.00565
  750          1     0.00599
  751          1     0.00591
  753          1     0.00565
  754          1     0.00558
  756          1     0.00588
  762          1     0.00593
  763          1     0.01114
  764          1     0.00583
  765          1     0.00561
  766          1     0.00568
  767          1     0.00603
  769          1     0.00532
  770          1     0.00596
  772          1     0.00500
  775          2     0.00852
  777          1     0.00543
  778          1     0.00558
  781          1     0.00862
  783          1     0.00541
  787          2     0.01231
  788          1     0.00619
  789          1     0.00646
  792          1     0.00887
  793          1     0.00669
  794          1     0.00640
  799          1     0.00653
  804          1     0.00621
  807          1     0.00650
  809          1     0.00624
  814          1     0.00649
  815          1     0.00628
  818          1     0.00622
  819          1     0.00638
  824          1     0.00706
  828          1     0.00677
  835          1     0.00664
  836          1     0.03402
  842          1     0.01131
  844          1     0.00623
  849          1     0.00586
  850          1     0.00557
  855          1     0.00644
  866          1     0.00548
  867          1     0.01446
  872          1     0.00581
  877          1     0.01032
  878          1     0.00577
  880          1     0.00593
  881          2     0.00615
  891          1     0.00566
  895          1     0.01098
  896          1     0.00570
  897          1     0.00574
  904          1     0.00986
  907          1     0.00587
  911          1     0.00945
  917          1     0.00592
  922          1     0.01206
  925          1     0.00578
  927          2     0.01005
  943          1     0.00592
  950          1     0.00598
  951          1     0.02002
  968          1     0.01017
  972          1     0.00661
  974          1     0.00609
  975          1     0.00966
  976          1     0.00607
  978          2     0.00707
  982          1     0.00588
  985          1     0.00809
  988          2     0.00612
 1005          1     0.00558
 1012          1     0.00592
 1013          1     0.00607
 1015          1     0.00599
 1020          1     0.00547
 1023          1     0.00569
 1026          1     0.00588
 1033          1     0.00547
 1035          1     0.00553
 1039          1     0.00564
 1045          1     0.00569
 1046          1     0.00602
 1050          1     0.00582
 1057          1     0.00579
 1061          1     0.00544
 1069          2     0.00540
 1072          1     0.00835
 1076          1     0.03882
 1084          2     0.00619
 1094          1     0.00576
 1096          1     0.00630
 1107          1     0.00590
 1117          1     0.00632
 1124          1     0.00590
 1144          1     0.00567
 1146          1     0.00542
 1167          1     0.00537
 1193          1     0.00598
 1219          1     0.00570
 1274          1     0.00552
took 402 iterations
Trial Time:          0.01038
    0          1     0.02351
   71          1     0.00635
   93          1     0.00662
  174          1     0.00654
  192          1     0.00546
took 5 iterations
Trial Time:          0.00052
    0          1     0.01515
  136          1     0.00582
took 2 iterations
Trial Time:          0.00044
    0          1     0.01591
  134          1     0.00632
  226          1     0.00600
took 3 iterations
Trial Time:          0.00046
    0          1     0.01393
   64          1     0.00590
   66          1     0.00560
took 3 iterations
Trial Time:          0.00046
Average Time:        0.01315
Exiting @ tick 1681737312000 because exiting with last active thread context
