gem5 Simulator System.  http://gem5.org
gem5 is copyrighted software; use the --copyright option for details.

gem5 compiled Mar 27 2020 00:28:59
gem5 started Apr 28 2020 01:25:24
gem5 executing on muhammet, pid 12511
command line: /home/muhammet/Desktop/gem5/build/RISCV/gem5.fast -re --outdir=/home/muhammet/Desktop/gem5/results/bfs/epinions.el/prefetch_TaggedPrefetcher_BIPRP --stdout-file=output.txt --stderr-file=error.txt /home/muhammet/Desktop/gem5/configs/example/my_se.py -c /home/muhammet/Desktop/gem5/gapbs/bfs -o '-f /home/muhammet/Desktop/gem5/gapbs/test/graphs/epinions.el' --caches --l1d_size=2kB --l1i_size=2kB --cpu-type=DerivO3CPU -n 4 --mem-size=512MB --l2cache --l2_size=4kB --l2-hwp-type=TaggedPrefetcher --l2-replacement-policy=BIPRP --l1i_mshrs=4 --l1d_mshrs=4 --l2_mshrs=20 --l1i_write_buffers=8 --l1d_write_buffers=8 --l2_write_buffers=8

Warning: l2-hwp-type is set ( TaggedPrefetcher ), but the current l2 has a default Hardware Prefetcher of type <class 'm5.params.NullSimObject'> , using the specified by the flag option.
Global frequency set at 1000000000000 ticks per second
**** REAL SIMULATION ****
Read Time:           0.40520
Build Time:          0.05398
Graph has 75888 nodes and 508837 directed edges for degree: 6
Source:                15167
    i                0.00022
   td          6     0.00002
   td        287     0.00003
   td       4925     0.00030
    e                0.00005
   bu      21499     0.00078
   bu      16984     0.00054
   bu       3402     0.00034
    c                0.00014
   td        477     0.00014
   td         79     0.00003
   td         13     0.00002
   td          3     0.00001
   td          0     0.00001
Trial Time:          0.00299
Source:                66430
    i                0.00021
   td          1     0.00001
   td         15     0.00002
   td         43     0.00002
   td       1074     0.00006
    e                0.00002
   bu      11778     0.00088
   bu      24737     0.00068
   bu       8428     0.00042
   bu       1343     0.00030
    c                0.00012
   td        215     0.00007
   td         32     0.00002
   td          8     0.00002
   td          1     0.00001
   td          0     0.00001
Trial Time:          0.00326
Source:                 1321
    i                0.00022
   td         41     0.00002
   td       2025     0.00009
    e                0.00002
   bu      14472     0.00085
   bu      23257     0.00064
   bu       6688     0.00039
   bu       1017     0.00029
    c                0.00012
   td        141     0.00005
   td         27     0.00002
   td          7     0.00002
   td          0     0.00001
Trial Time:          0.00309
Source:                20546
    i                0.00022
   td         22     0.00002
   td        711     0.00007
   td       9663     0.00058
    e                0.00011
   bu      24102     0.00072
   bu      11015     0.00045
   bu       1878     0.00031
    c                0.00012
   td        237     0.00009
   td         36     0.00002
   td          9     0.00002
   td          2     0.00001
   td          0     0.00001
Trial Time:          0.00311
Source:                31030
    i                0.00022
   td          2     0.00001
   td          6     0.00002
   td          2     0.00001
   td          1     0.00001
   td          1     0.00001
   td          0     0.00001
Trial Time:          0.00057
Source:                70363
    i                0.00022
   td          1     0.00001
   td          0     0.00001
Trial Time:          0.00045
Source:                18091
    i                0.00022
   td          4     0.00001
   td        297     0.00003
   td       4960     0.00037
    e                0.00005
   bu      22288     0.00078
   bu      16463     0.00054
   bu       3108     0.00033
    c                0.00014
   td        470     0.00012
   td         72     0.00003
   td         11     0.00002
   td          3     0.00001
   td          0     0.00001
Trial Time:          0.00301
Source:                39112
    i                0.00022
   td          8     0.00001
   td        105     0.00002
   td       3629     0.00016
    e                0.00004
   bu      21005     0.00079
   bu      18295     0.00056
   bu       3969     0.00035
    c                0.00014
   td        555     0.00015
   td         92     0.00003
   td         12     0.00002
   td          5     0.00001
   td          0     0.00001
Trial Time:          0.00287
Source:                64563
    i                0.00022
   td          2     0.00001
   td          1     0.00001
   td         35     0.00002
   td       2860     0.00016
    e                0.00003
   bu      17993     0.00085
   bu      20599     0.00060
   bu       5274     0.00037
   bu        792     0.00029
    c                0.00012
   td         90     0.00005
   td         21     0.00002
   td          8     0.00002
   td          2     0.00001
   td          0     0.00001
Trial Time:          0.00316
Source:                 8459
    i                0.00022
   td          5     0.00001
   td        228     0.00003
   td       4875     0.00027
    e                0.00005
   bu      22929     0.00078
   bu      16039     0.00053
   bu       3071     0.00034
    c                0.00013
   td        450     0.00013
   td         65     0.00003
   td         11     0.00002
   td          3     0.00001
   td          0     0.00001
Trial Time:          0.00292
Source:                61500
    i                0.00022
   td          1     0.00001
   td          3     0.00001
   td        113     0.00002
   td       3632     0.00020
    e                0.00004
   bu      21688     0.00081
   bu      17699     0.00056
   bu       3934     0.00035
    c                0.00014
   td        523     0.00014
   td         67     0.00003
   td         10     0.00002
   td          6     0.00001
   td          0     0.00002
Trial Time:          0.00293
Source:                24539
    i                0.00022
   td          1     0.00001
   td         57     0.00002
   td       2045     0.00011
    e                0.00003
   bu      16584     0.00085
   bu      22153     0.00062
   bu       5843     0.00038
   bu        865     0.00029
    c                0.00012
   td        106     0.00005
   td         15     0.00002
   td          6     0.00001
   td          1     0.00002
   td          0     0.00001
Trial Time:          0.00312
Source:                42596
    i                0.00022
   td          1     0.00001
   td         33     0.00002
   td       1514     0.00010
    e                0.00002
   bu      16683     0.00086
   bu      22250     0.00063
   bu       6132     0.00039
   bu        903     0.00029
    c                0.00012
   td        128     0.00005
   td         23     0.00002
   td          8     0.00002
   td          0     0.00001
Trial Time:          0.00310
Source:                   96
    i                0.00022
   td        101     0.00002
   td       2499     0.00013
    e                0.00003
   bu      15941     0.00083
   bu      22284     0.00061
   bu       5855     0.00037
   bu        826     0.00029
    c                0.00012
   td        137     0.00005
   td         26     0.00002
   td          5     0.00002
   td          1     0.00001
   td          0     0.00001
Trial Time:          0.00308
Source:                23803
    i                0.00022
   td          5     0.00001
   td        117     0.00003
   td       2516     0.00016
    e                0.00003
   bu      17602     0.00084
   bu      21087     0.00061
   bu       5454     0.00037
   bu        774     0.00029
    c                0.00012
   td        100     0.00005
   td         16     0.00002
   td          4     0.00001
   td          0     0.00001
Trial Time:          0.00312
Source:                24346
    i                0.00022
   td          1     0.00001
   td         27     0.00002
   td       1813     0.00011
    e                0.00002
   bu      15349     0.00086
   bu      22829     0.00064
   bu       6580     0.00039
   bu        917     0.00029
    c                0.00012
   td        128     0.00005
   td         24     0.00002
   td          8     0.00001
   td          0     0.00001
Trial Time:          0.00312
Average Time:        0.00274
Exiting @ tick 536299961000 because exiting with last active thread context
