
---------- Begin Simulation Statistics ----------
final_tick                               870536368000                       # Number of ticks from beginning of simulation (restored from checkpoints and never reset)
host_inst_rate                                  97990                       # Simulator instruction rate (inst/s)
host_mem_usage                                 739508                       # Number of bytes of host memory used
host_op_rate                                    98305                       # Simulator op (including micro ops) rate (op/s)
host_seconds                                 10393.98                       # Real time elapsed on the host
host_tick_rate                               83753895                       # Simulator tick rate (ticks/s)
sim_freq                                 1000000000000                       # Frequency of simulated ticks
sim_insts                                  1018502380                       # Number of instructions simulated
sim_ops                                    1021784005                       # Number of ops (including micro ops) simulated
sim_seconds                                  0.870536                       # Number of seconds simulated
sim_ticks                                870536368000                       # Number of ticks simulated
system.cpu0.branchPred.BTBCorrect                   0                       # Number of correct BTB predictions (this stat may not work properly.
system.cpu0.branchPred.BTBHitPct            86.608712                       # BTB Hit Percentage
system.cpu0.branchPred.BTBHits              116658018                       # Number of BTB hits
system.cpu0.branchPred.BTBLookups           134695478                       # Number of BTB lookups
system.cpu0.branchPred.RASInCorrect                 0                       # Number of incorrect RAS predictions.
system.cpu0.branchPred.condIncorrect          7939961                       # Number of conditional branches incorrect
system.cpu0.branchPred.condPredicted        185994622                       # Number of conditional branches predicted
system.cpu0.branchPred.indirectHits          15840833                       # Number of indirect target hits.
system.cpu0.branchPred.indirectLookups       15946711                       # Number of indirect predictor lookups.
system.cpu0.branchPred.indirectMisses          105878                       # Number of indirect misses.
system.cpu0.branchPred.lookups              236259039                       # Number of BP lookups
system.cpu0.branchPred.usedRAS                      0                       # Number of times the RAS was used to get a target.
system.cpu0.branchPredindirectMispredicted      1663533                       # Number of mispredicted indirect branches.
system.cpu0.commit.amos                        819874                       # Number of atomic instructions committed
system.cpu0.commit.branchMispredicts          5422766                       # The number of times a branch was mispredicted
system.cpu0.commit.branches                 221015379                       # Number of branches committed
system.cpu0.commit.bw_lim_events             30375819                       # number cycles where commit BW limit reached
system.cpu0.commit.commitNonSpecStalls        2466167                       # The number of times commit has been forced to stall to communicate backwards
system.cpu0.commit.commitSquashedInsts       56895565                       # The number of squashed insts skipped by commit
system.cpu0.commit.committedInsts           892406404                       # Number of instructions committed
system.cpu0.commit.committedOps             893228495                       # Number of ops (including micro ops) committed
system.cpu0.commit.committed_per_cycle::samples   1564475082                       # Number of insts commited each cycle
system.cpu0.commit.committed_per_cycle::mean     0.570945                       # Number of insts commited each cycle
system.cpu0.commit.committed_per_cycle::stdev     1.368069                       # Number of insts commited each cycle
system.cpu0.commit.committed_per_cycle::underflows            0      0.00%      0.00% # Number of insts commited each cycle
system.cpu0.commit.committed_per_cycle::0   1133197181     72.43%     72.43% # Number of insts commited each cycle
system.cpu0.commit.committed_per_cycle::1    267800673     17.12%     89.55% # Number of insts commited each cycle
system.cpu0.commit.committed_per_cycle::2     52665310      3.37%     92.92% # Number of insts commited each cycle
system.cpu0.commit.committed_per_cycle::3     58205049      3.72%     96.64% # Number of insts commited each cycle
system.cpu0.commit.committed_per_cycle::4     13777146      0.88%     97.52% # Number of insts commited each cycle
system.cpu0.commit.committed_per_cycle::5      5287452      0.34%     97.86% # Number of insts commited each cycle
system.cpu0.commit.committed_per_cycle::6      1235505      0.08%     97.93% # Number of insts commited each cycle
system.cpu0.commit.committed_per_cycle::7      1930947      0.12%     98.06% # Number of insts commited each cycle
system.cpu0.commit.committed_per_cycle::8     30375819      1.94%    100.00% # Number of insts commited each cycle
system.cpu0.commit.committed_per_cycle::overflows            0      0.00%    100.00% # Number of insts commited each cycle
system.cpu0.commit.committed_per_cycle::min_value            0                       # Number of insts commited each cycle
system.cpu0.commit.committed_per_cycle::max_value            8                       # Number of insts commited each cycle
system.cpu0.commit.committed_per_cycle::total   1564475082                       # Number of insts commited each cycle
system.cpu0.commit.fp_insts                        46                       # Number of committed floating point instructions.
system.cpu0.commit.function_calls            18341058                       # Number of function calls committed.
system.cpu0.commit.int_insts                863516612                       # Number of committed integer instructions.
system.cpu0.commit.loads                    280412986                       # Number of loads committed
system.cpu0.commit.membars                    1641845                       # Number of memory barriers committed
system.cpu0.commit.op_class_0::No_OpClass      1641851      0.18%      0.18% # Class of committed instruction
system.cpu0.commit.op_class_0::IntAlu       491118880     54.98%     55.17% # Class of committed instruction
system.cpu0.commit.op_class_0::IntMult        7835016      0.88%     56.04% # Class of committed instruction
system.cpu0.commit.op_class_0::IntDiv         1638713      0.18%     56.23% # Class of committed instruction
system.cpu0.commit.op_class_0::FloatAdd             0      0.00%     56.23% # Class of committed instruction
system.cpu0.commit.op_class_0::FloatCmp             4      0.00%     56.23% # Class of committed instruction
system.cpu0.commit.op_class_0::FloatCvt            12      0.00%     56.23% # Class of committed instruction
system.cpu0.commit.op_class_0::FloatMult            0      0.00%     56.23% # Class of committed instruction
system.cpu0.commit.op_class_0::FloatMultAcc            0      0.00%     56.23% # Class of committed instruction
system.cpu0.commit.op_class_0::FloatDiv             2      0.00%     56.23% # Class of committed instruction
system.cpu0.commit.op_class_0::FloatMisc            4      0.00%     56.23% # Class of committed instruction
system.cpu0.commit.op_class_0::FloatSqrt            0      0.00%     56.23% # Class of committed instruction
system.cpu0.commit.op_class_0::SimdAdd              0      0.00%     56.23% # Class of committed instruction
system.cpu0.commit.op_class_0::SimdAddAcc            0      0.00%     56.23% # Class of committed instruction
system.cpu0.commit.op_class_0::SimdAlu              0      0.00%     56.23% # Class of committed instruction
system.cpu0.commit.op_class_0::SimdCmp              0      0.00%     56.23% # Class of committed instruction
system.cpu0.commit.op_class_0::SimdCvt              0      0.00%     56.23% # Class of committed instruction
system.cpu0.commit.op_class_0::SimdMisc             0      0.00%     56.23% # Class of committed instruction
system.cpu0.commit.op_class_0::SimdMult             0      0.00%     56.23% # Class of committed instruction
system.cpu0.commit.op_class_0::SimdMultAcc            0      0.00%     56.23% # Class of committed instruction
system.cpu0.commit.op_class_0::SimdShift            0      0.00%     56.23% # Class of committed instruction
system.cpu0.commit.op_class_0::SimdShiftAcc            0      0.00%     56.23% # Class of committed instruction
system.cpu0.commit.op_class_0::SimdDiv              0      0.00%     56.23% # Class of committed instruction
system.cpu0.commit.op_class_0::SimdSqrt             0      0.00%     56.23% # Class of committed instruction
system.cpu0.commit.op_class_0::SimdFloatAdd            0      0.00%     56.23% # Class of committed instruction
system.cpu0.commit.op_class_0::SimdFloatAlu            0      0.00%     56.23% # Class of committed instruction
system.cpu0.commit.op_class_0::SimdFloatCmp            0      0.00%     56.23% # Class of committed instruction
system.cpu0.commit.op_class_0::SimdFloatCvt            0      0.00%     56.23% # Class of committed instruction
system.cpu0.commit.op_class_0::SimdFloatDiv            0      0.00%     56.23% # Class of committed instruction
system.cpu0.commit.op_class_0::SimdFloatMisc            0      0.00%     56.23% # Class of committed instruction
system.cpu0.commit.op_class_0::SimdFloatMult            0      0.00%     56.23% # Class of committed instruction
system.cpu0.commit.op_class_0::SimdFloatMultAcc            0      0.00%     56.23% # Class of committed instruction
system.cpu0.commit.op_class_0::SimdFloatSqrt            0      0.00%     56.23% # Class of committed instruction
system.cpu0.commit.op_class_0::SimdReduceAdd            0      0.00%     56.23% # Class of committed instruction
system.cpu0.commit.op_class_0::SimdReduceAlu            0      0.00%     56.23% # Class of committed instruction
system.cpu0.commit.op_class_0::SimdReduceCmp            0      0.00%     56.23% # Class of committed instruction
system.cpu0.commit.op_class_0::SimdFloatReduceAdd            0      0.00%     56.23% # Class of committed instruction
system.cpu0.commit.op_class_0::SimdFloatReduceCmp            0      0.00%     56.23% # Class of committed instruction
system.cpu0.commit.op_class_0::SimdAes              0      0.00%     56.23% # Class of committed instruction
system.cpu0.commit.op_class_0::SimdAesMix            0      0.00%     56.23% # Class of committed instruction
system.cpu0.commit.op_class_0::SimdSha1Hash            0      0.00%     56.23% # Class of committed instruction
system.cpu0.commit.op_class_0::SimdSha1Hash2            0      0.00%     56.23% # Class of committed instruction
system.cpu0.commit.op_class_0::SimdSha256Hash            0      0.00%     56.23% # Class of committed instruction
system.cpu0.commit.op_class_0::SimdSha256Hash2            0      0.00%     56.23% # Class of committed instruction
system.cpu0.commit.op_class_0::SimdShaSigma2            0      0.00%     56.23% # Class of committed instruction
system.cpu0.commit.op_class_0::SimdShaSigma3            0      0.00%     56.23% # Class of committed instruction
system.cpu0.commit.op_class_0::SimdPredAlu            0      0.00%     56.23% # Class of committed instruction
system.cpu0.commit.op_class_0::MemRead      281232852     31.48%     87.71% # Class of committed instruction
system.cpu0.commit.op_class_0::MemWrite     109761137     12.29%    100.00% # Class of committed instruction
system.cpu0.commit.op_class_0::FloatMemRead            8      0.00%    100.00% # Class of committed instruction
system.cpu0.commit.op_class_0::FloatMemWrite           16      0.00%    100.00% # Class of committed instruction
system.cpu0.commit.op_class_0::IprAccess            0      0.00%    100.00% # Class of committed instruction
system.cpu0.commit.op_class_0::InstPrefetch            0      0.00%    100.00% # Class of committed instruction
system.cpu0.commit.op_class_0::total        893228495                       # Class of committed instruction
system.cpu0.commit.refs                     390994013                       # Number of memory references committed
system.cpu0.commit.swp_count                        0                       # Number of s/w prefetches committed
system.cpu0.commit.vec_insts                        0                       # Number of committed Vector instructions.
system.cpu0.committedInsts                  892406404                       # Number of Instructions Simulated
system.cpu0.committedOps                    893228495                       # Number of Ops (including micro ops) Simulated
system.cpu0.cpi                              1.922007                       # CPI: Cycles Per Instruction
system.cpu0.cpi_total                        1.922007                       # CPI: Total CPI of All Threads
system.cpu0.decode.BlockedCycles            194353366                       # Number of cycles decode is blocked
system.cpu0.decode.BranchMispred              2521125                       # Number of times decode detected a branch misprediction
system.cpu0.decode.BranchResolved           115526006                       # Number of times decode resolved a branch
system.cpu0.decode.DecodedInsts             964471543                       # Number of instructions handled by decode
system.cpu0.decode.IdleCycles               693367773                       # Number of cycles decode is idle
system.cpu0.decode.RunCycles                679179356                       # Number of cycles decode is running
system.cpu0.decode.SquashCycles               5432829                       # Number of cycles decode is squashing
system.cpu0.decode.SquashedInsts              4212002                       # Number of squashed instructions handled by decode
system.cpu0.decode.UnblockCycles              2958048                       # Number of cycles decode is unblocking
system.cpu0.dtb.accesses                            0                       # DTB accesses
system.cpu0.dtb.hits                                0                       # DTB hits
system.cpu0.dtb.misses                              0                       # DTB misses
system.cpu0.dtb.read_accesses                       0                       # DTB read accesses
system.cpu0.dtb.read_hits                           0                       # DTB read hits
system.cpu0.dtb.read_misses                         0                       # DTB read misses
system.cpu0.dtb.write_accesses                      0                       # DTB write accesses
system.cpu0.dtb.write_hits                          0                       # DTB write hits
system.cpu0.dtb.write_misses                        0                       # DTB write misses
system.cpu0.fetch.Branches                  236259039                       # Number of branches that fetch encountered
system.cpu0.fetch.CacheLines                170198138                       # Number of cache lines fetched
system.cpu0.fetch.Cycles                    877198991                       # Number of cycles fetch has run and was not squashing or blocked
system.cpu0.fetch.IcacheSquashes              3895901                       # Number of outstanding Icache misses that were squashed
system.cpu0.fetch.IcacheWaitRetryStallCycles          101                       # Number of stall cycles due to full MSHR
system.cpu0.fetch.Insts                     980179957                       # Number of instructions fetch has processed
system.cpu0.fetch.MiscStallCycles                  11                       # Number of cycles fetch has spent waiting on interrupts, or bad addresses, or out of MSHRs
system.cpu0.fetch.SquashCycles               15900048                       # Number of cycles fetch has spent squashing
system.cpu0.fetch.branchRate                 0.137743                       # Number of branch fetches per cycle
system.cpu0.fetch.icacheStallCycles         690142245                       # Number of cycles fetch is stalled on an Icache miss
system.cpu0.fetch.predictedBranches         132498851                       # Number of branches that fetch has predicted taken
system.cpu0.fetch.rate                       0.571463                       # Number of inst fetches per cycle
system.cpu0.fetch.rateDist::samples        1575291372                       # Number of instructions fetched each cycle (Total)
system.cpu0.fetch.rateDist::mean             0.624145                       # Number of instructions fetched each cycle (Total)
system.cpu0.fetch.rateDist::stdev            0.896774                       # Number of instructions fetched each cycle (Total)
system.cpu0.fetch.rateDist::underflows              0      0.00%      0.00% # Number of instructions fetched each cycle (Total)
system.cpu0.fetch.rateDist::0               873184167     55.43%     55.43% # Number of instructions fetched each cycle (Total)
system.cpu0.fetch.rateDist::1               523120819     33.21%     88.64% # Number of instructions fetched each cycle (Total)
system.cpu0.fetch.rateDist::2               108667066      6.90%     95.54% # Number of instructions fetched each cycle (Total)
system.cpu0.fetch.rateDist::3                56443105      3.58%     99.12% # Number of instructions fetched each cycle (Total)
system.cpu0.fetch.rateDist::4                 5025339      0.32%     99.44% # Number of instructions fetched each cycle (Total)
system.cpu0.fetch.rateDist::5                 4759927      0.30%     99.74% # Number of instructions fetched each cycle (Total)
system.cpu0.fetch.rateDist::6                  779523      0.05%     99.79% # Number of instructions fetched each cycle (Total)
system.cpu0.fetch.rateDist::7                 1643607      0.10%     99.89% # Number of instructions fetched each cycle (Total)
system.cpu0.fetch.rateDist::8                 1667819      0.11%    100.00% # Number of instructions fetched each cycle (Total)
system.cpu0.fetch.rateDist::overflows               0      0.00%    100.00% # Number of instructions fetched each cycle (Total)
system.cpu0.fetch.rateDist::min_value               0                       # Number of instructions fetched each cycle (Total)
system.cpu0.fetch.rateDist::max_value               8                       # Number of instructions fetched each cycle (Total)
system.cpu0.fetch.rateDist::total          1575291372                       # Number of instructions fetched each cycle (Total)
system.cpu0.fp_regfile_reads                       40                       # number of floating regfile reads
system.cpu0.fp_regfile_writes                      23                       # number of floating regfile writes
system.cpu0.idleCycles                      139919564                       # Total number of cycles that the CPU has spent unscheduled due to idling
system.cpu0.iew.branchMispredicts             5466192                       # Number of branch mispredicts detected at execute
system.cpu0.iew.exec_branches               227008038                       # Number of branches executed
system.cpu0.iew.exec_nop                            0                       # number of nop insts executed
system.cpu0.iew.exec_rate                    0.541519                       # Inst execution rate
system.cpu0.iew.exec_refs                   410832926                       # number of memory reference insts executed
system.cpu0.iew.exec_stores                 112995390                       # Number of stores executed
system.cpu0.iew.exec_swp                            0                       # number of swp insts executed
system.cpu0.iew.iewBlockCycles              159305936                       # Number of cycles IEW is blocking
system.cpu0.iew.iewDispLoadInsts            302766603                       # Number of dispatched load instructions
system.cpu0.iew.iewDispNonSpecInsts           2017875                       # Number of dispatched non-speculative instructions
system.cpu0.iew.iewDispSquashedInsts          1546202                       # Number of squashed instructions skipped by dispatch
system.cpu0.iew.iewDispStoreInsts           117271428                       # Number of dispatched store instructions
system.cpu0.iew.iewDispatchedInsts          950114870                       # Number of instructions dispatched to IQ
system.cpu0.iew.iewExecLoadInsts            297837536                       # Number of load instructions executed
system.cpu0.iew.iewExecSquashedInsts          4419817                       # Number of squashed instructions skipped in execute
system.cpu0.iew.iewExecutedInsts            928819117                       # Number of executed instructions
system.cpu0.iew.iewIQFullEvents                736028                       # Number of times the IQ has become full, causing a stall
system.cpu0.iew.iewIdleCycles                       0                       # Number of cycles IEW is idle
system.cpu0.iew.iewLSQFullEvents              3290445                       # Number of times the LSQ has become full, causing a stall
system.cpu0.iew.iewSquashCycles               5432829                       # Number of cycles IEW is squashing
system.cpu0.iew.iewUnblockCycles              4812060                       # Number of cycles IEW is unblocking
system.cpu0.iew.lsq.thread0.blockedLoads            0                       # Number of blocked loads due to partial load-store forwarding
system.cpu0.iew.lsq.thread0.cacheBlocked        72049                       # Number of times an access to memory failed due to the cache being blocked
system.cpu0.iew.lsq.thread0.forwLoads        16872427                       # Number of loads that had data forwarded from stores
system.cpu0.iew.lsq.thread0.ignoredResponses        14492                       # Number of memory responses ignored because the instruction is squashed
system.cpu0.iew.lsq.thread0.invAddrLoads            0                       # Number of loads ignored due to an invalid address
system.cpu0.iew.lsq.thread0.invAddrSwpfs            0                       # Number of software prefetches ignored due to an invalid address
system.cpu0.iew.lsq.thread0.memOrderViolation        10794                       # Number of memory ordering violations
system.cpu0.iew.lsq.thread0.rescheduledLoads      3764381                       # Number of loads that were rescheduled
system.cpu0.iew.lsq.thread0.squashedLoads     22353617                       # Number of loads squashed
system.cpu0.iew.lsq.thread0.squashedStores      6690401                       # Number of stores squashed
system.cpu0.iew.memOrderViolationEvents         10794                       # Number of memory order violations
system.cpu0.iew.predictedNotTakenIncorrect       738632                       # Number of branches that were predicted not taken incorrectly
system.cpu0.iew.predictedTakenIncorrect       4727560                       # Number of branches that were predicted taken incorrectly
system.cpu0.iew.wb_consumers                374515308                       # num instructions consuming a value
system.cpu0.iew.wb_count                    920708276                       # cumulative count of insts written-back
system.cpu0.iew.wb_fanout                    0.891119                       # average fanout of values written-back
system.cpu0.iew.wb_producers                333737682                       # num instructions producing a value
system.cpu0.iew.wb_rate                      0.536790                       # insts written-back per cycle
system.cpu0.iew.wb_sent                     920755578                       # cumulative count of insts sent to commit
system.cpu0.int_regfile_reads              1132079749                       # number of integer regfile reads
system.cpu0.int_regfile_writes              588354486                       # number of integer regfile writes
system.cpu0.ipc                              0.520290                       # IPC: Instructions Per Cycle
system.cpu0.ipc_total                        0.520290                       # IPC: Total IPC of All Threads
system.cpu0.iq.FU_type_0::No_OpClass          1643336      0.18%      0.18% # Type of FU issued
system.cpu0.iq.FU_type_0::IntAlu            508250810     54.46%     54.64% # Type of FU issued
system.cpu0.iq.FU_type_0::IntMult             7839461      0.84%     55.48% # Type of FU issued
system.cpu0.iq.FU_type_0::IntDiv              1639158      0.18%     55.65% # Type of FU issued
system.cpu0.iq.FU_type_0::FloatAdd                  0      0.00%     55.65% # Type of FU issued
system.cpu0.iq.FU_type_0::FloatCmp                  4      0.00%     55.65% # Type of FU issued
system.cpu0.iq.FU_type_0::FloatCvt                 12      0.00%     55.65% # Type of FU issued
system.cpu0.iq.FU_type_0::FloatMult                 0      0.00%     55.65% # Type of FU issued
system.cpu0.iq.FU_type_0::FloatMultAcc              0      0.00%     55.65% # Type of FU issued
system.cpu0.iq.FU_type_0::FloatDiv                  2      0.00%     55.65% # Type of FU issued
system.cpu0.iq.FU_type_0::FloatMisc                 4      0.00%     55.65% # Type of FU issued
system.cpu0.iq.FU_type_0::FloatSqrt                 0      0.00%     55.65% # Type of FU issued
system.cpu0.iq.FU_type_0::SimdAdd                   0      0.00%     55.65% # Type of FU issued
system.cpu0.iq.FU_type_0::SimdAddAcc                0      0.00%     55.65% # Type of FU issued
system.cpu0.iq.FU_type_0::SimdAlu                   0      0.00%     55.65% # Type of FU issued
system.cpu0.iq.FU_type_0::SimdCmp                   0      0.00%     55.65% # Type of FU issued
system.cpu0.iq.FU_type_0::SimdCvt                   0      0.00%     55.65% # Type of FU issued
system.cpu0.iq.FU_type_0::SimdMisc                  0      0.00%     55.65% # Type of FU issued
system.cpu0.iq.FU_type_0::SimdMult                  0      0.00%     55.65% # Type of FU issued
system.cpu0.iq.FU_type_0::SimdMultAcc               0      0.00%     55.65% # Type of FU issued
system.cpu0.iq.FU_type_0::SimdShift                 0      0.00%     55.65% # Type of FU issued
system.cpu0.iq.FU_type_0::SimdShiftAcc              0      0.00%     55.65% # Type of FU issued
system.cpu0.iq.FU_type_0::SimdDiv                   0      0.00%     55.65% # Type of FU issued
system.cpu0.iq.FU_type_0::SimdSqrt                  0      0.00%     55.65% # Type of FU issued
system.cpu0.iq.FU_type_0::SimdFloatAdd              0      0.00%     55.65% # Type of FU issued
system.cpu0.iq.FU_type_0::SimdFloatAlu              0      0.00%     55.65% # Type of FU issued
system.cpu0.iq.FU_type_0::SimdFloatCmp              0      0.00%     55.65% # Type of FU issued
system.cpu0.iq.FU_type_0::SimdFloatCvt              0      0.00%     55.65% # Type of FU issued
system.cpu0.iq.FU_type_0::SimdFloatDiv              0      0.00%     55.65% # Type of FU issued
system.cpu0.iq.FU_type_0::SimdFloatMisc             0      0.00%     55.65% # Type of FU issued
system.cpu0.iq.FU_type_0::SimdFloatMult             0      0.00%     55.65% # Type of FU issued
system.cpu0.iq.FU_type_0::SimdFloatMultAcc            0      0.00%     55.65% # Type of FU issued
system.cpu0.iq.FU_type_0::SimdFloatSqrt             0      0.00%     55.65% # Type of FU issued
system.cpu0.iq.FU_type_0::SimdReduceAdd             0      0.00%     55.65% # Type of FU issued
system.cpu0.iq.FU_type_0::SimdReduceAlu             0      0.00%     55.65% # Type of FU issued
system.cpu0.iq.FU_type_0::SimdReduceCmp             0      0.00%     55.65% # Type of FU issued
system.cpu0.iq.FU_type_0::SimdFloatReduceAdd            0      0.00%     55.65% # Type of FU issued
system.cpu0.iq.FU_type_0::SimdFloatReduceCmp            0      0.00%     55.65% # Type of FU issued
system.cpu0.iq.FU_type_0::SimdAes                   0      0.00%     55.65% # Type of FU issued
system.cpu0.iq.FU_type_0::SimdAesMix                0      0.00%     55.65% # Type of FU issued
system.cpu0.iq.FU_type_0::SimdSha1Hash              0      0.00%     55.65% # Type of FU issued
system.cpu0.iq.FU_type_0::SimdSha1Hash2             0      0.00%     55.65% # Type of FU issued
system.cpu0.iq.FU_type_0::SimdSha256Hash            0      0.00%     55.65% # Type of FU issued
system.cpu0.iq.FU_type_0::SimdSha256Hash2            0      0.00%     55.65% # Type of FU issued
system.cpu0.iq.FU_type_0::SimdShaSigma2             0      0.00%     55.65% # Type of FU issued
system.cpu0.iq.FU_type_0::SimdShaSigma3             0      0.00%     55.65% # Type of FU issued
system.cpu0.iq.FU_type_0::SimdPredAlu               0      0.00%     55.65% # Type of FU issued
system.cpu0.iq.FU_type_0::MemRead           300285199     32.18%     87.83% # Type of FU issued
system.cpu0.iq.FU_type_0::MemWrite          113580924     12.17%    100.00% # Type of FU issued
system.cpu0.iq.FU_type_0::FloatMemRead              9      0.00%    100.00% # Type of FU issued
system.cpu0.iq.FU_type_0::FloatMemWrite            16      0.00%    100.00% # Type of FU issued
system.cpu0.iq.FU_type_0::IprAccess                 0      0.00%    100.00% # Type of FU issued
system.cpu0.iq.FU_type_0::InstPrefetch              0      0.00%    100.00% # Type of FU issued
system.cpu0.iq.FU_type_0::total             933238935                       # Type of FU issued
system.cpu0.iq.fp_alu_accesses                     49                       # Number of floating point alu accesses
system.cpu0.iq.fp_inst_queue_reads                 96                       # Number of floating instruction queue reads
system.cpu0.iq.fp_inst_queue_wakeup_accesses           47                       # Number of floating instruction queue wakeup accesses
system.cpu0.iq.fp_inst_queue_writes                48                       # Number of floating instruction queue writes
system.cpu0.iq.fu_busy_cnt                    1044962                       # FU busy when requested
system.cpu0.iq.fu_busy_rate                  0.001120                       # FU busy rate (busy events/executed inst)
system.cpu0.iq.fu_full::No_OpClass                  0      0.00%      0.00% # attempts to use FU when none available
system.cpu0.iq.fu_full::IntAlu                 174337     16.68%     16.68% # attempts to use FU when none available
system.cpu0.iq.fu_full::IntMult                     0      0.00%     16.68% # attempts to use FU when none available
system.cpu0.iq.fu_full::IntDiv                      0      0.00%     16.68% # attempts to use FU when none available
system.cpu0.iq.fu_full::FloatAdd                    0      0.00%     16.68% # attempts to use FU when none available
system.cpu0.iq.fu_full::FloatCmp                    0      0.00%     16.68% # attempts to use FU when none available
system.cpu0.iq.fu_full::FloatCvt                    0      0.00%     16.68% # attempts to use FU when none available
system.cpu0.iq.fu_full::FloatMult                   0      0.00%     16.68% # attempts to use FU when none available
system.cpu0.iq.fu_full::FloatMultAcc                0      0.00%     16.68% # attempts to use FU when none available
system.cpu0.iq.fu_full::FloatDiv                    0      0.00%     16.68% # attempts to use FU when none available
system.cpu0.iq.fu_full::FloatMisc                   0      0.00%     16.68% # attempts to use FU when none available
system.cpu0.iq.fu_full::FloatSqrt                   0      0.00%     16.68% # attempts to use FU when none available
system.cpu0.iq.fu_full::SimdAdd                     0      0.00%     16.68% # attempts to use FU when none available
system.cpu0.iq.fu_full::SimdAddAcc                  0      0.00%     16.68% # attempts to use FU when none available
system.cpu0.iq.fu_full::SimdAlu                     0      0.00%     16.68% # attempts to use FU when none available
system.cpu0.iq.fu_full::SimdCmp                     0      0.00%     16.68% # attempts to use FU when none available
system.cpu0.iq.fu_full::SimdCvt                     0      0.00%     16.68% # attempts to use FU when none available
system.cpu0.iq.fu_full::SimdMisc                    0      0.00%     16.68% # attempts to use FU when none available
system.cpu0.iq.fu_full::SimdMult                    0      0.00%     16.68% # attempts to use FU when none available
system.cpu0.iq.fu_full::SimdMultAcc                 0      0.00%     16.68% # attempts to use FU when none available
system.cpu0.iq.fu_full::SimdShift                   0      0.00%     16.68% # attempts to use FU when none available
system.cpu0.iq.fu_full::SimdShiftAcc                0      0.00%     16.68% # attempts to use FU when none available
system.cpu0.iq.fu_full::SimdDiv                     0      0.00%     16.68% # attempts to use FU when none available
system.cpu0.iq.fu_full::SimdSqrt                    0      0.00%     16.68% # attempts to use FU when none available
system.cpu0.iq.fu_full::SimdFloatAdd                0      0.00%     16.68% # attempts to use FU when none available
system.cpu0.iq.fu_full::SimdFloatAlu                0      0.00%     16.68% # attempts to use FU when none available
system.cpu0.iq.fu_full::SimdFloatCmp                0      0.00%     16.68% # attempts to use FU when none available
system.cpu0.iq.fu_full::SimdFloatCvt                0      0.00%     16.68% # attempts to use FU when none available
system.cpu0.iq.fu_full::SimdFloatDiv                0      0.00%     16.68% # attempts to use FU when none available
system.cpu0.iq.fu_full::SimdFloatMisc               0      0.00%     16.68% # attempts to use FU when none available
system.cpu0.iq.fu_full::SimdFloatMult               0      0.00%     16.68% # attempts to use FU when none available
system.cpu0.iq.fu_full::SimdFloatMultAcc            0      0.00%     16.68% # attempts to use FU when none available
system.cpu0.iq.fu_full::SimdFloatSqrt               0      0.00%     16.68% # attempts to use FU when none available
system.cpu0.iq.fu_full::SimdReduceAdd               0      0.00%     16.68% # attempts to use FU when none available
system.cpu0.iq.fu_full::SimdReduceAlu               0      0.00%     16.68% # attempts to use FU when none available
system.cpu0.iq.fu_full::SimdReduceCmp               0      0.00%     16.68% # attempts to use FU when none available
system.cpu0.iq.fu_full::SimdFloatReduceAdd            0      0.00%     16.68% # attempts to use FU when none available
system.cpu0.iq.fu_full::SimdFloatReduceCmp            0      0.00%     16.68% # attempts to use FU when none available
system.cpu0.iq.fu_full::SimdAes                     0      0.00%     16.68% # attempts to use FU when none available
system.cpu0.iq.fu_full::SimdAesMix                  0      0.00%     16.68% # attempts to use FU when none available
system.cpu0.iq.fu_full::SimdSha1Hash                0      0.00%     16.68% # attempts to use FU when none available
system.cpu0.iq.fu_full::SimdSha1Hash2               0      0.00%     16.68% # attempts to use FU when none available
system.cpu0.iq.fu_full::SimdSha256Hash              0      0.00%     16.68% # attempts to use FU when none available
system.cpu0.iq.fu_full::SimdSha256Hash2             0      0.00%     16.68% # attempts to use FU when none available
system.cpu0.iq.fu_full::SimdShaSigma2               0      0.00%     16.68% # attempts to use FU when none available
system.cpu0.iq.fu_full::SimdShaSigma3               0      0.00%     16.68% # attempts to use FU when none available
system.cpu0.iq.fu_full::SimdPredAlu                 0      0.00%     16.68% # attempts to use FU when none available
system.cpu0.iq.fu_full::MemRead                800059     76.56%     93.25% # attempts to use FU when none available
system.cpu0.iq.fu_full::MemWrite                70564      6.75%    100.00% # attempts to use FU when none available
system.cpu0.iq.fu_full::FloatMemRead                0      0.00%    100.00% # attempts to use FU when none available
system.cpu0.iq.fu_full::FloatMemWrite               2      0.00%    100.00% # attempts to use FU when none available
system.cpu0.iq.fu_full::IprAccess                   0      0.00%    100.00% # attempts to use FU when none available
system.cpu0.iq.fu_full::InstPrefetch                0      0.00%    100.00% # attempts to use FU when none available
system.cpu0.iq.int_alu_accesses             932640512                       # Number of integer alu accesses
system.cpu0.iq.int_inst_queue_reads        3442873477                       # Number of integer instruction queue reads
system.cpu0.iq.int_inst_queue_wakeup_accesses    920708229                       # Number of integer instruction queue wakeup accesses
system.cpu0.iq.int_inst_queue_writes       1007010873                       # Number of integer instruction queue writes
system.cpu0.iq.iqInstsAdded                 944082729                       # Number of instructions added to the IQ (excludes non-spec)
system.cpu0.iq.iqInstsIssued                933238935                       # Number of instructions issued
system.cpu0.iq.iqNonSpecInstsAdded            6032141                       # Number of non-speculative instructions added to the IQ
system.cpu0.iq.iqSquashedInstsExamined       56886371                       # Number of squashed instructions iterated over during squash; mainly for profiling
system.cpu0.iq.iqSquashedInstsIssued            59370                       # Number of squashed instructions issued
system.cpu0.iq.iqSquashedNonSpecRemoved       3565974                       # Number of squashed non-spec instructions that were removed
system.cpu0.iq.iqSquashedOperandsExamined     30895199                       # Number of squashed operands that are examined and possibly removed from graph
system.cpu0.iq.issued_per_cycle::samples   1575291372                       # Number of insts issued each cycle
system.cpu0.iq.issued_per_cycle::mean        0.592423                       # Number of insts issued each cycle
system.cpu0.iq.issued_per_cycle::stdev       0.801986                       # Number of insts issued each cycle
system.cpu0.iq.issued_per_cycle::underflows            0      0.00%      0.00% # Number of insts issued each cycle
system.cpu0.iq.issued_per_cycle::0          891166729     56.57%     56.57% # Number of insts issued each cycle
system.cpu0.iq.issued_per_cycle::1          482144533     30.61%     87.18% # Number of insts issued each cycle
system.cpu0.iq.issued_per_cycle::2          167622082     10.64%     97.82% # Number of insts issued each cycle
system.cpu0.iq.issued_per_cycle::3           26448478      1.68%     99.50% # Number of insts issued each cycle
system.cpu0.iq.issued_per_cycle::4            5204561      0.33%     99.83% # Number of insts issued each cycle
system.cpu0.iq.issued_per_cycle::5             825164      0.05%     99.88% # Number of insts issued each cycle
system.cpu0.iq.issued_per_cycle::6            1679130      0.11%     99.99% # Number of insts issued each cycle
system.cpu0.iq.issued_per_cycle::7             119600      0.01%     99.99% # Number of insts issued each cycle
system.cpu0.iq.issued_per_cycle::8              81095      0.01%    100.00% # Number of insts issued each cycle
system.cpu0.iq.issued_per_cycle::overflows            0      0.00%    100.00% # Number of insts issued each cycle
system.cpu0.iq.issued_per_cycle::min_value            0                       # Number of insts issued each cycle
system.cpu0.iq.issued_per_cycle::max_value            8                       # Number of insts issued each cycle
system.cpu0.iq.issued_per_cycle::total     1575291372                       # Number of insts issued each cycle
system.cpu0.iq.rate                          0.544096                       # Inst issue rate
system.cpu0.iq.vec_alu_accesses                     0                       # Number of vector alu accesses
system.cpu0.iq.vec_inst_queue_reads                 0                       # Number of vector instruction queue reads
system.cpu0.iq.vec_inst_queue_wakeup_accesses            0                       # Number of vector instruction queue wakeup accesses
system.cpu0.iq.vec_inst_queue_writes                0                       # Number of vector instruction queue writes
system.cpu0.itb.accesses                            0                       # DTB accesses
system.cpu0.itb.hits                                0                       # DTB hits
system.cpu0.itb.misses                              0                       # DTB misses
system.cpu0.itb.read_accesses                       0                       # DTB read accesses
system.cpu0.itb.read_hits                           0                       # DTB read hits
system.cpu0.itb.read_misses                         0                       # DTB read misses
system.cpu0.itb.write_accesses                      0                       # DTB write accesses
system.cpu0.itb.write_hits                          0                       # DTB write hits
system.cpu0.itb.write_misses                        0                       # DTB write misses
system.cpu0.memDep0.conflictingLoads         15756092                       # Number of conflicting loads.
system.cpu0.memDep0.conflictingStores         2909874                       # Number of conflicting stores.
system.cpu0.memDep0.insertedLoads           302766603                       # Number of loads inserted to the mem dependence unit.
system.cpu0.memDep0.insertedStores          117271428                       # Number of stores inserted to the mem dependence unit.
system.cpu0.misc_regfile_reads                   1518                       # number of misc regfile reads
system.cpu0.misc_regfile_writes                    22                       # number of misc regfile writes
system.cpu0.numCycles                      1715210936                       # number of cpu cycles simulated
system.cpu0.numWorkItemsCompleted                   0                       # number of work items this cpu completed
system.cpu0.numWorkItemsStarted                     0                       # number of work items this cpu started
system.cpu0.quiesceCycles                    25862653                       # Total number of cycles that CPU has spent quiesced or waiting for an interrupt
system.cpu0.rename.BlockCycles              168852302                       # Number of cycles rename is blocking
system.cpu0.rename.CommittedMaps            569161284                       # Number of HB maps that are committed
system.cpu0.rename.IQFullEvents               3720911                       # Number of times rename has blocked due to IQ full
system.cpu0.rename.IdleCycles               699315947                       # Number of cycles rename is idle
system.cpu0.rename.LQFullEvents               9324525                       # Number of times rename has blocked due to LQ full
system.cpu0.rename.ROBFullEvents                 7545                       # Number of times rename has blocked due to ROB full
system.cpu0.rename.RenameLookups           1168676650                       # Number of register rename lookups that rename has made
system.cpu0.rename.RenamedInsts             958164983                       # Number of instructions processed by rename
system.cpu0.rename.RenamedOperands          613990885                       # Number of destination operands rename has renamed
system.cpu0.rename.RunCycles                675227062                       # Number of cycles rename is running
system.cpu0.rename.SQFullEvents              12527530                       # Number of times rename has blocked due to SQ full
system.cpu0.rename.SquashCycles               5432829                       # Number of cycles rename is squashing
system.cpu0.rename.UnblockCycles             26327036                       # Number of cycles rename is unblocking
system.cpu0.rename.UndoneMaps                44829593                       # Number of HB maps that are undone due to squashing
system.cpu0.rename.fp_rename_lookups               40                       # Number of floating rename lookups
system.cpu0.rename.int_rename_lookups      1168676610                       # Number of integer rename lookups
system.cpu0.rename.serializeStallCycles        136196                       # count of cycles rename stalled for serializing inst
system.cpu0.rename.serializingInsts              4594                       # count of serializing insts renamed
system.cpu0.rename.skidInsts                 10355578                       # count of insts added to the skid buffer
system.cpu0.rename.tempSerializingInsts          4587                       # count of temporary serializing insts renamed
system.cpu0.rob.rob_reads                  2484204200                       # The number of ROB reads
system.cpu0.rob.rob_writes                 1911068881                       # The number of ROB writes
system.cpu0.timesIdled                       25511188                       # Number of times that the entire CPU went into an idle state and unscheduled itself
system.cpu0.workload.numSyscalls                 1485                       # Number of system calls
system.cpu1.branchPred.BTBCorrect                   0                       # Number of correct BTB predictions (this stat may not work properly.
system.cpu1.branchPred.BTBHitPct            85.737229                       # BTB Hit Percentage
system.cpu1.branchPred.BTBHits               10694699                       # Number of BTB hits
system.cpu1.branchPred.BTBLookups            12473810                       # Number of BTB lookups
system.cpu1.branchPred.RASInCorrect                 0                       # Number of incorrect RAS predictions.
system.cpu1.branchPred.condIncorrect          2719982                       # Number of conditional branches incorrect
system.cpu1.branchPred.condPredicted         17713847                       # Number of conditional branches predicted
system.cpu1.branchPred.indirectHits            219495                       # Number of indirect target hits.
system.cpu1.branchPred.indirectLookups         311295                       # Number of indirect predictor lookups.
system.cpu1.branchPred.indirectMisses           91800                       # Number of indirect misses.
system.cpu1.branchPred.lookups               20091757                       # Number of BP lookups
system.cpu1.branchPred.usedRAS                      0                       # Number of times the RAS was used to get a target.
system.cpu1.branchPredindirectMispredicted        23865                       # Number of mispredicted indirect branches.
system.cpu1.commit.amos                        819656                       # Number of atomic instructions committed
system.cpu1.commit.branchMispredicts          1921855                       # The number of times a branch was mispredicted
system.cpu1.commit.branches                  10300989                       # Number of branches committed
system.cpu1.commit.bw_lim_events               714428                       # number cycles where commit BW limit reached
system.cpu1.commit.commitNonSpecStalls        2459647                       # The number of times commit has been forced to stall to communicate backwards
system.cpu1.commit.commitSquashedInsts       28643905                       # The number of squashed insts skipped by commit
system.cpu1.commit.committedInsts            41849908                       # Number of instructions committed
system.cpu1.commit.committedOps              42669758                       # Number of ops (including micro ops) committed
system.cpu1.commit.committed_per_cycle::samples    232029029                       # Number of insts commited each cycle
system.cpu1.commit.committed_per_cycle::mean     0.183898                       # Number of insts commited each cycle
system.cpu1.commit.committed_per_cycle::stdev     0.778880                       # Number of insts commited each cycle
system.cpu1.commit.committed_per_cycle::underflows            0      0.00%      0.00% # Number of insts commited each cycle
system.cpu1.commit.committed_per_cycle::0    212418281     91.55%     91.55% # Number of insts commited each cycle
system.cpu1.commit.committed_per_cycle::1      9603162      4.14%     95.69% # Number of insts commited each cycle
system.cpu1.commit.committed_per_cycle::2      4171878      1.80%     97.48% # Number of insts commited each cycle
system.cpu1.commit.committed_per_cycle::3      3132544      1.35%     98.83% # Number of insts commited each cycle
system.cpu1.commit.committed_per_cycle::4      1100087      0.47%     99.31% # Number of insts commited each cycle
system.cpu1.commit.committed_per_cycle::5       200280      0.09%     99.40% # Number of insts commited each cycle
system.cpu1.commit.committed_per_cycle::6       610547      0.26%     99.66% # Number of insts commited each cycle
system.cpu1.commit.committed_per_cycle::7        77822      0.03%     99.69% # Number of insts commited each cycle
system.cpu1.commit.committed_per_cycle::8       714428      0.31%    100.00% # Number of insts commited each cycle
system.cpu1.commit.committed_per_cycle::overflows            0      0.00%    100.00% # Number of insts commited each cycle
system.cpu1.commit.committed_per_cycle::min_value            0                       # Number of insts commited each cycle
system.cpu1.commit.committed_per_cycle::max_value            8                       # Number of insts commited each cycle
system.cpu1.commit.committed_per_cycle::total    232029029                       # Number of insts commited each cycle
system.cpu1.commit.fp_insts                        12                       # Number of committed floating point instructions.
system.cpu1.commit.function_calls              317348                       # Number of function calls committed.
system.cpu1.commit.int_insts                 40184338                       # Number of committed integer instructions.
system.cpu1.commit.loads                     11553381                       # Number of loads committed
system.cpu1.commit.membars                    1639376                       # Number of memory barriers committed
system.cpu1.commit.op_class_0::No_OpClass      1639376      3.84%      3.84% # Class of committed instruction
system.cpu1.commit.op_class_0::IntAlu        24991200     58.57%     62.41% # Class of committed instruction
system.cpu1.commit.op_class_0::IntMult             43      0.00%     62.41% # Class of committed instruction
system.cpu1.commit.op_class_0::IntDiv              86      0.00%     62.41% # Class of committed instruction
system.cpu1.commit.op_class_0::FloatAdd             0      0.00%     62.41% # Class of committed instruction
system.cpu1.commit.op_class_0::FloatCmp             0      0.00%     62.41% # Class of committed instruction
system.cpu1.commit.op_class_0::FloatCvt             0      0.00%     62.41% # Class of committed instruction
system.cpu1.commit.op_class_0::FloatMult            0      0.00%     62.41% # Class of committed instruction
system.cpu1.commit.op_class_0::FloatMultAcc            0      0.00%     62.41% # Class of committed instruction
system.cpu1.commit.op_class_0::FloatDiv             0      0.00%     62.41% # Class of committed instruction
system.cpu1.commit.op_class_0::FloatMisc            0      0.00%     62.41% # Class of committed instruction
system.cpu1.commit.op_class_0::FloatSqrt            0      0.00%     62.41% # Class of committed instruction
system.cpu1.commit.op_class_0::SimdAdd              0      0.00%     62.41% # Class of committed instruction
system.cpu1.commit.op_class_0::SimdAddAcc            0      0.00%     62.41% # Class of committed instruction
system.cpu1.commit.op_class_0::SimdAlu              0      0.00%     62.41% # Class of committed instruction
system.cpu1.commit.op_class_0::SimdCmp              0      0.00%     62.41% # Class of committed instruction
system.cpu1.commit.op_class_0::SimdCvt              0      0.00%     62.41% # Class of committed instruction
system.cpu1.commit.op_class_0::SimdMisc             0      0.00%     62.41% # Class of committed instruction
system.cpu1.commit.op_class_0::SimdMult             0      0.00%     62.41% # Class of committed instruction
system.cpu1.commit.op_class_0::SimdMultAcc            0      0.00%     62.41% # Class of committed instruction
system.cpu1.commit.op_class_0::SimdShift            0      0.00%     62.41% # Class of committed instruction
system.cpu1.commit.op_class_0::SimdShiftAcc            0      0.00%     62.41% # Class of committed instruction
system.cpu1.commit.op_class_0::SimdDiv              0      0.00%     62.41% # Class of committed instruction
system.cpu1.commit.op_class_0::SimdSqrt             0      0.00%     62.41% # Class of committed instruction
system.cpu1.commit.op_class_0::SimdFloatAdd            0      0.00%     62.41% # Class of committed instruction
system.cpu1.commit.op_class_0::SimdFloatAlu            0      0.00%     62.41% # Class of committed instruction
system.cpu1.commit.op_class_0::SimdFloatCmp            0      0.00%     62.41% # Class of committed instruction
system.cpu1.commit.op_class_0::SimdFloatCvt            0      0.00%     62.41% # Class of committed instruction
system.cpu1.commit.op_class_0::SimdFloatDiv            0      0.00%     62.41% # Class of committed instruction
system.cpu1.commit.op_class_0::SimdFloatMisc            0      0.00%     62.41% # Class of committed instruction
system.cpu1.commit.op_class_0::SimdFloatMult            0      0.00%     62.41% # Class of committed instruction
system.cpu1.commit.op_class_0::SimdFloatMultAcc            0      0.00%     62.41% # Class of committed instruction
system.cpu1.commit.op_class_0::SimdFloatSqrt            0      0.00%     62.41% # Class of committed instruction
system.cpu1.commit.op_class_0::SimdReduceAdd            0      0.00%     62.41% # Class of committed instruction
system.cpu1.commit.op_class_0::SimdReduceAlu            0      0.00%     62.41% # Class of committed instruction
system.cpu1.commit.op_class_0::SimdReduceCmp            0      0.00%     62.41% # Class of committed instruction
system.cpu1.commit.op_class_0::SimdFloatReduceAdd            0      0.00%     62.41% # Class of committed instruction
system.cpu1.commit.op_class_0::SimdFloatReduceCmp            0      0.00%     62.41% # Class of committed instruction
system.cpu1.commit.op_class_0::SimdAes              0      0.00%     62.41% # Class of committed instruction
system.cpu1.commit.op_class_0::SimdAesMix            0      0.00%     62.41% # Class of committed instruction
system.cpu1.commit.op_class_0::SimdSha1Hash            0      0.00%     62.41% # Class of committed instruction
system.cpu1.commit.op_class_0::SimdSha1Hash2            0      0.00%     62.41% # Class of committed instruction
system.cpu1.commit.op_class_0::SimdSha256Hash            0      0.00%     62.41% # Class of committed instruction
system.cpu1.commit.op_class_0::SimdSha256Hash2            0      0.00%     62.41% # Class of committed instruction
system.cpu1.commit.op_class_0::SimdShaSigma2            0      0.00%     62.41% # Class of committed instruction
system.cpu1.commit.op_class_0::SimdShaSigma3            0      0.00%     62.41% # Class of committed instruction
system.cpu1.commit.op_class_0::SimdPredAlu            0      0.00%     62.41% # Class of committed instruction
system.cpu1.commit.op_class_0::MemRead       12373037     29.00%     91.41% # Class of committed instruction
system.cpu1.commit.op_class_0::MemWrite       3666004      8.59%    100.00% # Class of committed instruction
system.cpu1.commit.op_class_0::FloatMemRead            0      0.00%    100.00% # Class of committed instruction
system.cpu1.commit.op_class_0::FloatMemWrite           12      0.00%    100.00% # Class of committed instruction
system.cpu1.commit.op_class_0::IprAccess            0      0.00%    100.00% # Class of committed instruction
system.cpu1.commit.op_class_0::InstPrefetch            0      0.00%    100.00% # Class of committed instruction
system.cpu1.commit.op_class_0::total         42669758                       # Class of committed instruction
system.cpu1.commit.refs                      16039053                       # Number of memory references committed
system.cpu1.commit.swp_count                        0                       # Number of s/w prefetches committed
system.cpu1.commit.vec_insts                        0                       # Number of committed Vector instructions.
system.cpu1.committedInsts                   41849908                       # Number of Instructions Simulated
system.cpu1.committedOps                     42669758                       # Number of Ops (including micro ops) Simulated
system.cpu1.cpi                              5.667077                       # CPI: Cycles Per Instruction
system.cpu1.cpi_total                        5.667077                       # CPI: Total CPI of All Threads
system.cpu1.decode.BlockedCycles            178630919                       # Number of cycles decode is blocked
system.cpu1.decode.BranchMispred               802025                       # Number of times decode detected a branch misprediction
system.cpu1.decode.BranchResolved             9785436                       # Number of times decode resolved a branch
system.cpu1.decode.DecodedInsts              79983818                       # Number of instructions handled by decode
system.cpu1.decode.IdleCycles                15548399                       # Number of cycles decode is idle
system.cpu1.decode.RunCycles                 38258381                       # Number of cycles decode is running
system.cpu1.decode.SquashCycles               1922852                       # Number of cycles decode is squashing
system.cpu1.decode.SquashedInsts               673915                       # Number of squashed instructions handled by decode
system.cpu1.decode.UnblockCycles              2389058                       # Number of cycles decode is unblocking
system.cpu1.dtb.accesses                            0                       # DTB accesses
system.cpu1.dtb.hits                                0                       # DTB hits
system.cpu1.dtb.misses                              0                       # DTB misses
system.cpu1.dtb.read_accesses                       0                       # DTB read accesses
system.cpu1.dtb.read_hits                           0                       # DTB read hits
system.cpu1.dtb.read_misses                         0                       # DTB read misses
system.cpu1.dtb.write_accesses                      0                       # DTB write accesses
system.cpu1.dtb.write_hits                          0                       # DTB write hits
system.cpu1.dtb.write_misses                        0                       # DTB write misses
system.cpu1.fetch.Branches                   20091757                       # Number of branches that fetch encountered
system.cpu1.fetch.CacheLines                 12249690                       # Number of cache lines fetched
system.cpu1.fetch.Cycles                    220118094                       # Number of cycles fetch has run and was not squashing or blocked
system.cpu1.fetch.IcacheSquashes               457087                       # Number of outstanding Icache misses that were squashed
system.cpu1.fetch.Insts                      90893917                       # Number of instructions fetch has processed
system.cpu1.fetch.MiscStallCycles                   1                       # Number of cycles fetch has spent waiting on interrupts, or bad addresses, or out of MSHRs
system.cpu1.fetch.SquashCycles                5441958                       # Number of cycles fetch has spent squashing
system.cpu1.fetch.branchRate                 0.084716                       # Number of branch fetches per cycle
system.cpu1.fetch.icacheStallCycles          13910535                       # Number of cycles fetch is stalled on an Icache miss
system.cpu1.fetch.predictedBranches          10914194                       # Number of branches that fetch has predicted taken
system.cpu1.fetch.rate                       0.383249                       # Number of inst fetches per cycle
system.cpu1.fetch.rateDist::samples         236749609                       # Number of instructions fetched each cycle (Total)
system.cpu1.fetch.rateDist::mean             0.396510                       # Number of instructions fetched each cycle (Total)
system.cpu1.fetch.rateDist::stdev            0.883388                       # Number of instructions fetched each cycle (Total)
system.cpu1.fetch.rateDist::underflows              0      0.00%      0.00% # Number of instructions fetched each cycle (Total)
system.cpu1.fetch.rateDist::0               181251974     76.56%     76.56% # Number of instructions fetched each cycle (Total)
system.cpu1.fetch.rateDist::1                32443758     13.70%     90.26% # Number of instructions fetched each cycle (Total)
system.cpu1.fetch.rateDist::2                14533685      6.14%     96.40% # Number of instructions fetched each cycle (Total)
system.cpu1.fetch.rateDist::3                 4545815      1.92%     98.32% # Number of instructions fetched each cycle (Total)
system.cpu1.fetch.rateDist::4                 1780440      0.75%     99.07% # Number of instructions fetched each cycle (Total)
system.cpu1.fetch.rateDist::5                 1621156      0.68%     99.76% # Number of instructions fetched each cycle (Total)
system.cpu1.fetch.rateDist::6                  540516      0.23%     99.99% # Number of instructions fetched each cycle (Total)
system.cpu1.fetch.rateDist::7                    3681      0.00%     99.99% # Number of instructions fetched each cycle (Total)
system.cpu1.fetch.rateDist::8                   28584      0.01%    100.00% # Number of instructions fetched each cycle (Total)
system.cpu1.fetch.rateDist::overflows               0      0.00%    100.00% # Number of instructions fetched each cycle (Total)
system.cpu1.fetch.rateDist::min_value               0                       # Number of instructions fetched each cycle (Total)
system.cpu1.fetch.rateDist::max_value               8                       # Number of instructions fetched each cycle (Total)
system.cpu1.fetch.rateDist::total           236749609                       # Number of instructions fetched each cycle (Total)
system.cpu1.fp_regfile_reads                       12                       # number of floating regfile reads
system.cpu1.idleCycles                         417041                       # Total number of cycles that the CPU has spent unscheduled due to idling
system.cpu1.iew.branchMispredicts             1961286                       # Number of branch mispredicts detected at execute
system.cpu1.iew.exec_branches                13331856                       # Number of branches executed
system.cpu1.iew.exec_nop                            0                       # number of nop insts executed
system.cpu1.iew.exec_rate                    0.220367                       # Inst execution rate
system.cpu1.iew.exec_refs                    18193536                       # number of memory reference insts executed
system.cpu1.iew.exec_stores                   5268026                       # Number of stores executed
system.cpu1.iew.exec_swp                            0                       # number of swp insts executed
system.cpu1.iew.iewBlockCycles              156358782                       # Number of cycles IEW is blocking
system.cpu1.iew.iewDispLoadInsts             19623911                       # Number of dispatched load instructions
system.cpu1.iew.iewDispNonSpecInsts           1950205                       # Number of dispatched non-speculative instructions
system.cpu1.iew.iewDispSquashedInsts          1407804                       # Number of squashed instructions skipped by dispatch
system.cpu1.iew.iewDispStoreInsts             8083089                       # Number of dispatched store instructions
system.cpu1.iew.iewDispatchedInsts           71304329                       # Number of instructions dispatched to IQ
system.cpu1.iew.iewExecLoadInsts             12925510                       # Number of load instructions executed
system.cpu1.iew.iewExecSquashedInsts          1508028                       # Number of squashed instructions skipped in execute
system.cpu1.iew.iewExecutedInsts             52263695                       # Number of executed instructions
system.cpu1.iew.iewIQFullEvents                809584                       # Number of times the IQ has become full, causing a stall
system.cpu1.iew.iewIdleCycles                       0                       # Number of cycles IEW is idle
system.cpu1.iew.iewLSQFullEvents               740611                       # Number of times the LSQ has become full, causing a stall
system.cpu1.iew.iewSquashCycles               1922852                       # Number of cycles IEW is squashing
system.cpu1.iew.iewUnblockCycles              2241615                       # Number of cycles IEW is unblocking
system.cpu1.iew.lsq.thread0.blockedLoads            0                       # Number of blocked loads due to partial load-store forwarding
system.cpu1.iew.lsq.thread0.cacheBlocked        39173                       # Number of times an access to memory failed due to the cache being blocked
system.cpu1.iew.lsq.thread0.forwLoads          217782                       # Number of loads that had data forwarded from stores
system.cpu1.iew.lsq.thread0.ignoredResponses        13019                       # Number of memory responses ignored because the instruction is squashed
system.cpu1.iew.lsq.thread0.invAddrLoads            0                       # Number of loads ignored due to an invalid address
system.cpu1.iew.lsq.thread0.invAddrSwpfs            0                       # Number of software prefetches ignored due to an invalid address
system.cpu1.iew.lsq.thread0.memOrderViolation         2122                       # Number of memory ordering violations
system.cpu1.iew.lsq.thread0.rescheduledLoads         2385                       # Number of loads that were rescheduled
system.cpu1.iew.lsq.thread0.squashedLoads      8070530                       # Number of loads squashed
system.cpu1.iew.lsq.thread0.squashedStores      3597417                       # Number of stores squashed
system.cpu1.iew.memOrderViolationEvents          2122                       # Number of memory order violations
system.cpu1.iew.predictedNotTakenIncorrect       625997                       # Number of branches that were predicted not taken incorrectly
system.cpu1.iew.predictedTakenIncorrect       1335289                       # Number of branches that were predicted taken incorrectly
system.cpu1.iew.wb_consumers                 25340354                       # num instructions consuming a value
system.cpu1.iew.wb_count                     51374001                       # cumulative count of insts written-back
system.cpu1.iew.wb_fanout                    0.776665                       # average fanout of values written-back
system.cpu1.iew.wb_producers                 19680961                       # num instructions producing a value
system.cpu1.iew.wb_rate                      0.216616                       # insts written-back per cycle
system.cpu1.iew.wb_sent                      51400756                       # cumulative count of insts sent to commit
system.cpu1.int_regfile_reads                67244485                       # number of integer regfile reads
system.cpu1.int_regfile_writes               32169934                       # number of integer regfile writes
system.cpu1.ipc                              0.176458                       # IPC: Instructions Per Cycle
system.cpu1.ipc_total                        0.176458                       # IPC: Total IPC of All Threads
system.cpu1.iq.FU_type_0::No_OpClass          1639589      3.05%      3.05% # Type of FU issued
system.cpu1.iq.FU_type_0::IntAlu             33426041     62.16%     65.21% # Type of FU issued
system.cpu1.iq.FU_type_0::IntMult                  54      0.00%     65.21% # Type of FU issued
system.cpu1.iq.FU_type_0::IntDiv                   86      0.00%     65.21% # Type of FU issued
system.cpu1.iq.FU_type_0::FloatAdd                  0      0.00%     65.21% # Type of FU issued
system.cpu1.iq.FU_type_0::FloatCmp                  0      0.00%     65.21% # Type of FU issued
system.cpu1.iq.FU_type_0::FloatCvt                  0      0.00%     65.21% # Type of FU issued
system.cpu1.iq.FU_type_0::FloatMult                 0      0.00%     65.21% # Type of FU issued
system.cpu1.iq.FU_type_0::FloatMultAcc              0      0.00%     65.21% # Type of FU issued
system.cpu1.iq.FU_type_0::FloatDiv                  0      0.00%     65.21% # Type of FU issued
system.cpu1.iq.FU_type_0::FloatMisc                 0      0.00%     65.21% # Type of FU issued
system.cpu1.iq.FU_type_0::FloatSqrt                 0      0.00%     65.21% # Type of FU issued
system.cpu1.iq.FU_type_0::SimdAdd                   0      0.00%     65.21% # Type of FU issued
system.cpu1.iq.FU_type_0::SimdAddAcc                0      0.00%     65.21% # Type of FU issued
system.cpu1.iq.FU_type_0::SimdAlu                   0      0.00%     65.21% # Type of FU issued
system.cpu1.iq.FU_type_0::SimdCmp                   0      0.00%     65.21% # Type of FU issued
system.cpu1.iq.FU_type_0::SimdCvt                   0      0.00%     65.21% # Type of FU issued
system.cpu1.iq.FU_type_0::SimdMisc                  0      0.00%     65.21% # Type of FU issued
system.cpu1.iq.FU_type_0::SimdMult                  0      0.00%     65.21% # Type of FU issued
system.cpu1.iq.FU_type_0::SimdMultAcc               0      0.00%     65.21% # Type of FU issued
system.cpu1.iq.FU_type_0::SimdShift                 0      0.00%     65.21% # Type of FU issued
system.cpu1.iq.FU_type_0::SimdShiftAcc              0      0.00%     65.21% # Type of FU issued
system.cpu1.iq.FU_type_0::SimdDiv                   0      0.00%     65.21% # Type of FU issued
system.cpu1.iq.FU_type_0::SimdSqrt                  0      0.00%     65.21% # Type of FU issued
system.cpu1.iq.FU_type_0::SimdFloatAdd              0      0.00%     65.21% # Type of FU issued
system.cpu1.iq.FU_type_0::SimdFloatAlu              0      0.00%     65.21% # Type of FU issued
system.cpu1.iq.FU_type_0::SimdFloatCmp              0      0.00%     65.21% # Type of FU issued
system.cpu1.iq.FU_type_0::SimdFloatCvt              0      0.00%     65.21% # Type of FU issued
system.cpu1.iq.FU_type_0::SimdFloatDiv              0      0.00%     65.21% # Type of FU issued
system.cpu1.iq.FU_type_0::SimdFloatMisc             0      0.00%     65.21% # Type of FU issued
system.cpu1.iq.FU_type_0::SimdFloatMult             0      0.00%     65.21% # Type of FU issued
system.cpu1.iq.FU_type_0::SimdFloatMultAcc            0      0.00%     65.21% # Type of FU issued
system.cpu1.iq.FU_type_0::SimdFloatSqrt             0      0.00%     65.21% # Type of FU issued
system.cpu1.iq.FU_type_0::SimdReduceAdd             0      0.00%     65.21% # Type of FU issued
system.cpu1.iq.FU_type_0::SimdReduceAlu             0      0.00%     65.21% # Type of FU issued
system.cpu1.iq.FU_type_0::SimdReduceCmp             0      0.00%     65.21% # Type of FU issued
system.cpu1.iq.FU_type_0::SimdFloatReduceAdd            0      0.00%     65.21% # Type of FU issued
system.cpu1.iq.FU_type_0::SimdFloatReduceCmp            0      0.00%     65.21% # Type of FU issued
system.cpu1.iq.FU_type_0::SimdAes                   0      0.00%     65.21% # Type of FU issued
system.cpu1.iq.FU_type_0::SimdAesMix                0      0.00%     65.21% # Type of FU issued
system.cpu1.iq.FU_type_0::SimdSha1Hash              0      0.00%     65.21% # Type of FU issued
system.cpu1.iq.FU_type_0::SimdSha1Hash2             0      0.00%     65.21% # Type of FU issued
system.cpu1.iq.FU_type_0::SimdSha256Hash            0      0.00%     65.21% # Type of FU issued
system.cpu1.iq.FU_type_0::SimdSha256Hash2            0      0.00%     65.21% # Type of FU issued
system.cpu1.iq.FU_type_0::SimdShaSigma2             0      0.00%     65.21% # Type of FU issued
system.cpu1.iq.FU_type_0::SimdShaSigma3             0      0.00%     65.21% # Type of FU issued
system.cpu1.iq.FU_type_0::SimdPredAlu               0      0.00%     65.21% # Type of FU issued
system.cpu1.iq.FU_type_0::MemRead            14099745     26.22%     91.43% # Type of FU issued
system.cpu1.iq.FU_type_0::MemWrite            4606196      8.57%    100.00% # Type of FU issued
system.cpu1.iq.FU_type_0::FloatMemRead              0      0.00%    100.00% # Type of FU issued
system.cpu1.iq.FU_type_0::FloatMemWrite            12      0.00%    100.00% # Type of FU issued
system.cpu1.iq.FU_type_0::IprAccess                 0      0.00%    100.00% # Type of FU issued
system.cpu1.iq.FU_type_0::InstPrefetch              0      0.00%    100.00% # Type of FU issued
system.cpu1.iq.FU_type_0::total              53771723                       # Type of FU issued
system.cpu1.iq.fp_alu_accesses                     14                       # Number of floating point alu accesses
system.cpu1.iq.fp_inst_queue_reads                 26                       # Number of floating instruction queue reads
system.cpu1.iq.fp_inst_queue_wakeup_accesses           12                       # Number of floating instruction queue wakeup accesses
system.cpu1.iq.fp_inst_queue_writes                12                       # Number of floating instruction queue writes
system.cpu1.iq.fu_busy_cnt                     918235                       # FU busy when requested
system.cpu1.iq.fu_busy_rate                  0.017077                       # FU busy rate (busy events/executed inst)
system.cpu1.iq.fu_full::No_OpClass                  0      0.00%      0.00% # attempts to use FU when none available
system.cpu1.iq.fu_full::IntAlu                 145765     15.87%     15.87% # attempts to use FU when none available
system.cpu1.iq.fu_full::IntMult                     0      0.00%     15.87% # attempts to use FU when none available
system.cpu1.iq.fu_full::IntDiv                      0      0.00%     15.87% # attempts to use FU when none available
system.cpu1.iq.fu_full::FloatAdd                    0      0.00%     15.87% # attempts to use FU when none available
system.cpu1.iq.fu_full::FloatCmp                    0      0.00%     15.87% # attempts to use FU when none available
system.cpu1.iq.fu_full::FloatCvt                    0      0.00%     15.87% # attempts to use FU when none available
system.cpu1.iq.fu_full::FloatMult                   0      0.00%     15.87% # attempts to use FU when none available
system.cpu1.iq.fu_full::FloatMultAcc                0      0.00%     15.87% # attempts to use FU when none available
system.cpu1.iq.fu_full::FloatDiv                    0      0.00%     15.87% # attempts to use FU when none available
system.cpu1.iq.fu_full::FloatMisc                   0      0.00%     15.87% # attempts to use FU when none available
system.cpu1.iq.fu_full::FloatSqrt                   0      0.00%     15.87% # attempts to use FU when none available
system.cpu1.iq.fu_full::SimdAdd                     0      0.00%     15.87% # attempts to use FU when none available
system.cpu1.iq.fu_full::SimdAddAcc                  0      0.00%     15.87% # attempts to use FU when none available
system.cpu1.iq.fu_full::SimdAlu                     0      0.00%     15.87% # attempts to use FU when none available
system.cpu1.iq.fu_full::SimdCmp                     0      0.00%     15.87% # attempts to use FU when none available
system.cpu1.iq.fu_full::SimdCvt                     0      0.00%     15.87% # attempts to use FU when none available
system.cpu1.iq.fu_full::SimdMisc                    0      0.00%     15.87% # attempts to use FU when none available
system.cpu1.iq.fu_full::SimdMult                    0      0.00%     15.87% # attempts to use FU when none available
system.cpu1.iq.fu_full::SimdMultAcc                 0      0.00%     15.87% # attempts to use FU when none available
system.cpu1.iq.fu_full::SimdShift                   0      0.00%     15.87% # attempts to use FU when none available
system.cpu1.iq.fu_full::SimdShiftAcc                0      0.00%     15.87% # attempts to use FU when none available
system.cpu1.iq.fu_full::SimdDiv                     0      0.00%     15.87% # attempts to use FU when none available
system.cpu1.iq.fu_full::SimdSqrt                    0      0.00%     15.87% # attempts to use FU when none available
system.cpu1.iq.fu_full::SimdFloatAdd                0      0.00%     15.87% # attempts to use FU when none available
system.cpu1.iq.fu_full::SimdFloatAlu                0      0.00%     15.87% # attempts to use FU when none available
system.cpu1.iq.fu_full::SimdFloatCmp                0      0.00%     15.87% # attempts to use FU when none available
system.cpu1.iq.fu_full::SimdFloatCvt                0      0.00%     15.87% # attempts to use FU when none available
system.cpu1.iq.fu_full::SimdFloatDiv                0      0.00%     15.87% # attempts to use FU when none available
system.cpu1.iq.fu_full::SimdFloatMisc               0      0.00%     15.87% # attempts to use FU when none available
system.cpu1.iq.fu_full::SimdFloatMult               0      0.00%     15.87% # attempts to use FU when none available
system.cpu1.iq.fu_full::SimdFloatMultAcc            0      0.00%     15.87% # attempts to use FU when none available
system.cpu1.iq.fu_full::SimdFloatSqrt               0      0.00%     15.87% # attempts to use FU when none available
system.cpu1.iq.fu_full::SimdReduceAdd               0      0.00%     15.87% # attempts to use FU when none available
system.cpu1.iq.fu_full::SimdReduceAlu               0      0.00%     15.87% # attempts to use FU when none available
system.cpu1.iq.fu_full::SimdReduceCmp               0      0.00%     15.87% # attempts to use FU when none available
system.cpu1.iq.fu_full::SimdFloatReduceAdd            0      0.00%     15.87% # attempts to use FU when none available
system.cpu1.iq.fu_full::SimdFloatReduceCmp            0      0.00%     15.87% # attempts to use FU when none available
system.cpu1.iq.fu_full::SimdAes                     0      0.00%     15.87% # attempts to use FU when none available
system.cpu1.iq.fu_full::SimdAesMix                  0      0.00%     15.87% # attempts to use FU when none available
system.cpu1.iq.fu_full::SimdSha1Hash                0      0.00%     15.87% # attempts to use FU when none available
system.cpu1.iq.fu_full::SimdSha1Hash2               0      0.00%     15.87% # attempts to use FU when none available
system.cpu1.iq.fu_full::SimdSha256Hash              0      0.00%     15.87% # attempts to use FU when none available
system.cpu1.iq.fu_full::SimdSha256Hash2             0      0.00%     15.87% # attempts to use FU when none available
system.cpu1.iq.fu_full::SimdShaSigma2               0      0.00%     15.87% # attempts to use FU when none available
system.cpu1.iq.fu_full::SimdShaSigma3               0      0.00%     15.87% # attempts to use FU when none available
system.cpu1.iq.fu_full::SimdPredAlu                 0      0.00%     15.87% # attempts to use FU when none available
system.cpu1.iq.fu_full::MemRead                677896     73.83%     89.70% # attempts to use FU when none available
system.cpu1.iq.fu_full::MemWrite                94572     10.30%    100.00% # attempts to use FU when none available
system.cpu1.iq.fu_full::FloatMemRead                0      0.00%    100.00% # attempts to use FU when none available
[...]
system.cpu1.dcache.WriteReq_mshr_misses::total        21015                       # number of WriteReq MSHR misses
system.cpu1.dcache.WriteReq_mshr_miss_latency::.cpu1.data   1903370369                       # number of WriteReq MSHR miss cycles
system.cpu1.dcache.WriteReq_mshr_miss_latency::total   1903370369                       # number of WriteReq MSHR miss cycles
system.cpu1.dcache.WriteReq_mshr_miss_rate::.cpu1.data     0.033357                       # mshr miss rate for WriteReq accesses
system.cpu1.dcache.WriteReq_mshr_miss_rate::total     0.033357                       # mshr miss rate for WriteReq accesses
system.cpu1.dcache.WriteReq_avg_mshr_miss_latency::.cpu1.data 90571.989960                       # average WriteReq mshr miss latency
system.cpu1.dcache.WriteReq_avg_mshr_miss_latency::total 90571.989960                       # average WriteReq mshr miss latency
system.cpu1.dcache.LoadLockedReq_hits::.cpu1.data          954                       # number of LoadLockedReq hits
system.cpu1.dcache.LoadLockedReq_hits::total          954                       # number of LoadLockedReq hits
system.cpu1.dcache.LoadLockedReq_misses::.cpu1.data          344                       # number of LoadLockedReq misses
system.cpu1.dcache.LoadLockedReq_misses::total          344                       # number of LoadLockedReq misses
system.cpu1.dcache.LoadLockedReq_miss_latency::.cpu1.data     10989500                       # number of LoadLockedReq miss cycles
system.cpu1.dcache.LoadLockedReq_miss_latency::total     10989500                       # number of LoadLockedReq miss cycles
system.cpu1.dcache.LoadLockedReq_accesses::.cpu1.data         1298                       # number of LoadLockedReq accesses(hits+misses)
system.cpu1.dcache.LoadLockedReq_accesses::total         1298                       # number of LoadLockedReq accesses(hits+misses)
system.cpu1.dcache.LoadLockedReq_miss_rate::.cpu1.data     0.265023                       # miss rate for LoadLockedReq accesses
system.cpu1.dcache.LoadLockedReq_miss_rate::total     0.265023                       # miss rate for LoadLockedReq accesses
system.cpu1.dcache.LoadLockedReq_avg_miss_latency::.cpu1.data 31946.220930                       # average LoadLockedReq miss latency
system.cpu1.dcache.LoadLockedReq_avg_miss_latency::total 31946.220930                       # average LoadLockedReq miss latency
system.cpu1.dcache.LoadLockedReq_mshr_hits::.cpu1.data          173                       # number of LoadLockedReq MSHR hits
system.cpu1.dcache.LoadLockedReq_mshr_hits::total          173                       # number of LoadLockedReq MSHR hits
system.cpu1.dcache.LoadLockedReq_mshr_misses::.cpu1.data          171                       # number of LoadLockedReq MSHR misses
system.cpu1.dcache.LoadLockedReq_mshr_misses::total          171                       # number of LoadLockedReq MSHR misses
system.cpu1.dcache.LoadLockedReq_mshr_miss_latency::.cpu1.data       909500                       # number of LoadLockedReq MSHR miss cycles
system.cpu1.dcache.LoadLockedReq_mshr_miss_latency::total       909500                       # number of LoadLockedReq MSHR miss cycles
system.cpu1.dcache.LoadLockedReq_mshr_miss_rate::.cpu1.data     0.131741                       # mshr miss rate for LoadLockedReq accesses
system.cpu1.dcache.LoadLockedReq_mshr_miss_rate::total     0.131741                       # mshr miss rate for LoadLockedReq accesses
system.cpu1.dcache.LoadLockedReq_avg_mshr_miss_latency::.cpu1.data  5318.713450                       # average LoadLockedReq mshr miss latency
system.cpu1.dcache.LoadLockedReq_avg_mshr_miss_latency::total  5318.713450                       # average LoadLockedReq mshr miss latency
system.cpu1.dcache.StoreCondReq_hits::.cpu1.data          523                       # number of StoreCondReq hits
system.cpu1.dcache.StoreCondReq_hits::total          523                       # number of StoreCondReq hits
system.cpu1.dcache.StoreCondReq_misses::.cpu1.data          439                       # number of StoreCondReq misses
system.cpu1.dcache.StoreCondReq_misses::total          439                       # number of StoreCondReq misses
system.cpu1.dcache.StoreCondReq_miss_latency::.cpu1.data      2098000                       # number of StoreCondReq miss cycles
system.cpu1.dcache.StoreCondReq_miss_latency::total      2098000                       # number of StoreCondReq miss cycles
system.cpu1.dcache.StoreCondReq_accesses::.cpu1.data          962                       # number of StoreCondReq accesses(hits+misses)
system.cpu1.dcache.StoreCondReq_accesses::total          962                       # number of StoreCondReq accesses(hits+misses)
system.cpu1.dcache.StoreCondReq_miss_rate::.cpu1.data     0.456341                       # miss rate for StoreCondReq accesses
system.cpu1.dcache.StoreCondReq_miss_rate::total     0.456341                       # miss rate for StoreCondReq accesses
system.cpu1.dcache.StoreCondReq_avg_miss_latency::.cpu1.data  4779.043280                       # average StoreCondReq miss latency
system.cpu1.dcache.StoreCondReq_avg_miss_latency::total  4779.043280                       # average StoreCondReq miss latency
system.cpu1.dcache.StoreCondReq_mshr_misses::.cpu1.data          437                       # number of StoreCondReq MSHR misses
system.cpu1.dcache.StoreCondReq_mshr_misses::total          437                       # number of StoreCondReq MSHR misses
system.cpu1.dcache.StoreCondReq_mshr_miss_latency::.cpu1.data      1738000                       # number of StoreCondReq MSHR miss cycles
system.cpu1.dcache.StoreCondReq_mshr_miss_latency::total      1738000                       # number of StoreCondReq MSHR miss cycles
system.cpu1.dcache.StoreCondReq_mshr_miss_rate::.cpu1.data     0.454262                       # mshr miss rate for StoreCondReq accesses
system.cpu1.dcache.StoreCondReq_mshr_miss_rate::total     0.454262                       # mshr miss rate for StoreCondReq accesses
system.cpu1.dcache.StoreCondReq_avg_mshr_miss_latency::.cpu1.data  3977.116705                       # average StoreCondReq mshr miss latency
system.cpu1.dcache.StoreCondReq_avg_mshr_miss_latency::total  3977.116705                       # average StoreCondReq mshr miss latency
system.cpu1.dcache.StoreCondFailReq_miss_latency::.cpu1.data      1291000                       # number of StoreCondFailReq miss cycles
system.cpu1.dcache.StoreCondFailReq_miss_latency::total      1291000                       # number of StoreCondFailReq miss cycles
system.cpu1.dcache.StoreCondFailReq_avg_miss_latency::.cpu1.data          inf                       # average StoreCondFailReq miss latency
system.cpu1.dcache.StoreCondFailReq_avg_miss_latency::total          inf                       # average StoreCondFailReq miss latency
system.cpu1.dcache.StoreCondFailReq_mshr_miss_latency::.cpu1.data      1214000                       # number of StoreCondFailReq MSHR miss cycles
system.cpu1.dcache.StoreCondFailReq_mshr_miss_latency::total      1214000                       # number of StoreCondFailReq MSHR miss cycles
system.cpu1.dcache.StoreCondFailReq_avg_mshr_miss_latency::.cpu1.data          inf                       # average StoreCondFailReq mshr miss latency
system.cpu1.dcache.StoreCondFailReq_avg_mshr_miss_latency::total          inf                       # average StoreCondFailReq mshr miss latency
system.cpu1.dcache.SwapReq_hits::.cpu1.data          230                       # number of SwapReq hits
system.cpu1.dcache.SwapReq_hits::total            230                       # number of SwapReq hits
system.cpu1.dcache.SwapReq_misses::.cpu1.data          651                       # number of SwapReq misses
system.cpu1.dcache.SwapReq_misses::total          651                       # number of SwapReq misses
system.cpu1.dcache.SwapReq_miss_latency::.cpu1.data      3105500                       # number of SwapReq miss cycles
system.cpu1.dcache.SwapReq_miss_latency::total      3105500                       # number of SwapReq miss cycles
system.cpu1.dcache.SwapReq_accesses::.cpu1.data          881                       # number of SwapReq accesses(hits+misses)
system.cpu1.dcache.SwapReq_accesses::total          881                       # number of SwapReq accesses(hits+misses)
system.cpu1.dcache.SwapReq_miss_rate::.cpu1.data     0.738933                       # miss rate for SwapReq accesses
system.cpu1.dcache.SwapReq_miss_rate::total     0.738933                       # miss rate for SwapReq accesses
system.cpu1.dcache.SwapReq_avg_miss_latency::.cpu1.data  4770.353303                       # average SwapReq miss latency
system.cpu1.dcache.SwapReq_avg_miss_latency::total  4770.353303                       # average SwapReq miss latency
system.cpu1.dcache.SwapReq_mshr_misses::.cpu1.data          651                       # number of SwapReq MSHR misses
system.cpu1.dcache.SwapReq_mshr_misses::total          651                       # number of SwapReq MSHR misses
system.cpu1.dcache.SwapReq_mshr_miss_latency::.cpu1.data      2454500                       # number of SwapReq MSHR miss cycles
system.cpu1.dcache.SwapReq_mshr_miss_latency::total      2454500                       # number of SwapReq MSHR miss cycles
system.cpu1.dcache.SwapReq_mshr_miss_rate::.cpu1.data     0.738933                       # mshr miss rate for SwapReq accesses
system.cpu1.dcache.SwapReq_mshr_miss_rate::total     0.738933                       # mshr miss rate for SwapReq accesses
system.cpu1.dcache.SwapReq_avg_mshr_miss_latency::.cpu1.data  3770.353303                       # average SwapReq mshr miss latency
system.cpu1.dcache.SwapReq_avg_mshr_miss_latency::total  3770.353303                       # average SwapReq mshr miss latency
system.cpu1.dcache.tags.pwrStateResidencyTicks::UNDEFINED 537656414500                       # Cumulative time (in ticks) in various power states
system.cpu1.dcache.tags.tagsinuse           31.954317                       # Cycle average of tags in use
system.cpu1.dcache.tags.total_refs           53125667                       # Total number of references to valid blocks.
system.cpu1.dcache.tags.sampled_refs         14400224                       # Sample count of references to valid blocks.
system.cpu1.dcache.tags.avg_refs             3.689225                       # Average number of references to valid blocks.
system.cpu1.dcache.tags.warmup_cycle                0                       # Cycle when the warmup percentage was hit.
system.cpu1.dcache.tags.occ_blocks::.cpu1.data    31.954317                       # Average occupied blocks per requestor
system.cpu1.dcache.tags.occ_percent::.cpu1.data     0.998572                       # Average percentage of cache occupancy
system.cpu1.dcache.tags.occ_percent::total     0.998572                       # Average percentage of cache occupancy
system.cpu1.dcache.tags.occ_task_id_blocks::1024           29                       # Occupied blocks per task id
system.cpu1.dcache.tags.age_task_id_blocks_1024::1           29                       # Occupied blocks per task id
system.cpu1.dcache.tags.occ_task_id_percent::1024     0.906250                       # Percentage of cache occupancy per task id
system.cpu1.dcache.tags.tag_accesses        133031329                       # Number of tag accesses
system.cpu1.dcache.tags.data_accesses       133031329                       # Number of data accesses
system.cpu_clk_domain.clock                       500                       # Clock period in ticks
system.tol2bus.pwrStateResidencyTicks::UNDEFINED 537656414500                       # Cumulative time (in ticks) in various power states
system.tol2bus.trans_dist::ReadResp          48637048                       # Transaction distribution
system.tol2bus.trans_dist::ReadRespWithInvalidate            6                       # Transaction distribution
system.tol2bus.trans_dist::WritebackDirty      1712362                       # Transaction distribution
system.tol2bus.trans_dist::WritebackClean     47758082                       # Transaction distribution
system.tol2bus.trans_dist::CleanEvict        81680659                       # Transaction distribution
system.tol2bus.trans_dist::UpgradeReq           26871                       # Transaction distribution
system.tol2bus.trans_dist::SCUpgradeReq          1776                       # Transaction distribution
system.tol2bus.trans_dist::UpgradeResp          28647                       # Transaction distribution
system.tol2bus.trans_dist::SCUpgradeFailReq          174                       # Transaction distribution
system.tol2bus.trans_dist::UpgradeFailResp          174                       # Transaction distribution
system.tol2bus.trans_dist::ReadExReq            65335                       # Transaction distribution
system.tol2bus.trans_dist::ReadExResp           65335                       # Transaction distribution
system.tol2bus.trans_dist::ReadCleanReq         30854                       # Transaction distribution
system.tol2bus.trans_dist::ReadSharedReq     48606202                       # Transaction distribution
system.tol2bus.pkt_count_system.cpu0.icache.mem_side::system.l2.cpu_side        54814                       # Packet count per connected master and slave (bytes)
system.tol2bus.pkt_count_system.cpu0.dcache.mem_side::system.l2.cpu_side     59822257                       # Packet count per connected master and slave (bytes)
system.tol2bus.pkt_count_system.cpu1.icache.mem_side::system.l2.cpu_side        12870                       # Packet count per connected master and slave (bytes)
system.tol2bus.pkt_count_system.cpu1.dcache.mem_side::system.l2.cpu_side     43193918                       # Packet count per connected master and slave (bytes)
system.tol2bus.pkt_count_system.cpu2.icache.mem_side::system.l2.cpu_side        12192                       # Packet count per connected master and slave (bytes)
system.tol2bus.pkt_count_system.cpu2.dcache.mem_side::system.l2.cpu_side     27665203                       # Packet count per connected master and slave (bytes)
system.tol2bus.pkt_count_system.cpu3.icache.mem_side::system.l2.cpu_side        12684                       # Packet count per connected master and slave (bytes)
system.tol2bus.pkt_count_system.cpu3.dcache.mem_side::system.l2.cpu_side     15315788                       # Packet count per connected master and slave (bytes)
system.tol2bus.pkt_count::total             146089726                       # Packet count per connected master and slave (bytes)
system.tol2bus.pkt_size_system.cpu0.icache.mem_side::system.l2.cpu_side      2338688                       # Cumulative packet size per connected master and slave (bytes)
system.tol2bus.pkt_size_system.cpu0.dcache.mem_side::system.l2.cpu_side   2551417152                       # Cumulative packet size per connected master and slave (bytes)
system.tol2bus.pkt_size_system.cpu1.icache.mem_side::system.l2.cpu_side       549120                       # Cumulative packet size per connected master and slave (bytes)
system.tol2bus.pkt_size_system.cpu1.dcache.mem_side::system.l2.cpu_side   1842028544                       # Cumulative packet size per connected master and slave (bytes)
system.tol2bus.pkt_size_system.cpu2.icache.mem_side::system.l2.cpu_side       520192                       # Cumulative packet size per connected master and slave (bytes)
system.tol2bus.pkt_size_system.cpu2.dcache.mem_side::system.l2.cpu_side   1179514944                       # Cumulative packet size per connected master and slave (bytes)
system.tol2bus.pkt_size_system.cpu3.icache.mem_side::system.l2.cpu_side       541184                       # Cumulative packet size per connected master and slave (bytes)
system.tol2bus.pkt_size_system.cpu3.dcache.mem_side::system.l2.cpu_side    652695040                       # Cumulative packet size per connected master and slave (bytes)
system.tol2bus.pkt_size::total             6229604864                       # Cumulative packet size per connected master and slave (bytes)
system.tol2bus.snoops                        82523799                       # Total snoops (count)
system.tol2bus.snoopTraffic                  53467584                       # Total snoop traffic (bytes)
system.tol2bus.snoop_fanout::samples        131206995                       # Request fanout histogram
system.tol2bus.snoop_fanout::mean            0.350178                       # Request fanout histogram
system.tol2bus.snoop_fanout::stdev           0.540916                       # Request fanout histogram
system.tol2bus.snoop_fanout::underflows             0      0.00%      0.00% # Request fanout histogram
system.tol2bus.snoop_fanout::0               88663113     67.57%     67.57% # Request fanout histogram
system.tol2bus.snoop_fanout::1               39895287     30.41%     97.98% # Request fanout histogram
system.tol2bus.snoop_fanout::2                2006628      1.53%     99.51% # Request fanout histogram
system.tol2bus.snoop_fanout::3                 530691      0.40%     99.92% # Request fanout histogram
system.tol2bus.snoop_fanout::4                 111198      0.08%    100.00% # Request fanout histogram
system.tol2bus.snoop_fanout::5                     78      0.00%    100.00% # Request fanout histogram
system.tol2bus.snoop_fanout::6                      0      0.00%    100.00% # Request fanout histogram
system.tol2bus.snoop_fanout::7                      0      0.00%    100.00% # Request fanout histogram
system.tol2bus.snoop_fanout::8                      0      0.00%    100.00% # Request fanout histogram
system.tol2bus.snoop_fanout::overflows              0      0.00%    100.00% # Request fanout histogram
system.tol2bus.snoop_fanout::min_value              0                       # Request fanout histogram
system.tol2bus.snoop_fanout::max_value              5                       # Request fanout histogram
system.tol2bus.snoop_fanout::total          131206995                       # Request fanout histogram
system.tol2bus.reqLayer0.occupancy        97378691860                       # Layer occupancy (ticks)
system.tol2bus.reqLayer0.utilization             18.1                       # Layer utilization (%)
system.tol2bus.respLayer5.occupancy       13874677797                       # Layer occupancy (ticks)
system.tol2bus.respLayer5.utilization             2.6                       # Layer utilization (%)
system.tol2bus.respLayer4.occupancy           6377831                       # Layer occupancy (ticks)
system.tol2bus.respLayer4.utilization             0.0                       # Layer utilization (%)
system.tol2bus.respLayer7.occupancy        7685687811                       # Layer occupancy (ticks)
system.tol2bus.respLayer7.utilization             1.4                       # Layer utilization (%)
system.tol2bus.respLayer6.occupancy           6509576                       # Layer occupancy (ticks)
system.tol2bus.respLayer6.utilization             0.0                       # Layer utilization (%)
system.tol2bus.respLayer1.occupancy       29953563420                       # Layer occupancy (ticks)
system.tol2bus.respLayer1.utilization             5.6                       # Layer utilization (%)
system.tol2bus.respLayer0.occupancy          27443419                       # Layer occupancy (ticks)
system.tol2bus.respLayer0.utilization             0.0                       # Layer utilization (%)
system.tol2bus.respLayer3.occupancy       21645538180                       # Layer occupancy (ticks)
system.tol2bus.respLayer3.utilization             4.0                       # Layer utilization (%)
system.tol2bus.respLayer2.occupancy           6746720                       # Layer occupancy (ticks)
system.tol2bus.respLayer2.utilization             0.0                       # Layer utilization (%)

---------- End Simulation Statistics   ----------
