
---------- Begin Simulation Statistics ----------
final_tick                               585540118000                       # Number of ticks from beginning of simulation (restored from checkpoints and never reset)
host_inst_rate                                  64292                       # Simulator instruction rate (inst/s)
host_mem_usage                                 701768                       # Number of bytes of host memory used
host_op_rate                                    64506                       # Simulator op (including micro ops) rate (op/s)
host_seconds                                  9527.83                       # Real time elapsed on the host
host_tick_rate                               61455758                       # Simulator tick rate (ticks/s)
sim_freq                                 1000000000000                       # Frequency of simulated ticks
sim_insts                                   612564738                       # Number of instructions simulated
sim_ops                                     614602333                       # Number of ops (including micro ops) simulated
sim_seconds                                  0.585540                       # Number of seconds simulated
sim_ticks                                585540118000                       # Number of ticks simulated
system.cpu0.branchPred.BTBCorrect                   0                       # Number of correct BTB predictions (this stat may not work properly.
system.cpu0.branchPred.BTBHitPct            86.890585                       # BTB Hit Percentage
system.cpu0.branchPred.BTBHits               78413792                       # Number of BTB hits
system.cpu0.branchPred.BTBLookups            90244291                       # Number of BTB lookups
system.cpu0.branchPred.RASInCorrect                 0                       # Number of incorrect RAS predictions.
system.cpu0.branchPred.condIncorrect          7667986                       # Number of conditional branches incorrect
system.cpu0.branchPred.condPredicted        121473484                       # Number of conditional branches predicted
system.cpu0.branchPred.indirectHits          10564660                       # Number of indirect target hits.
system.cpu0.branchPred.indirectLookups       10836957                       # Number of indirect predictor lookups.
system.cpu0.branchPred.indirectMisses          272297                       # Number of indirect misses.
system.cpu0.branchPred.lookups              155581290                       # Number of BP lookups
system.cpu0.branchPred.usedRAS                      0                       # Number of times the RAS was used to get a target.
system.cpu0.branchPredindirectMispredicted      1061620                       # Number of mispredicted indirect branches.
system.cpu0.commit.amos                       1018216                       # Number of atomic instructions committed
system.cpu0.commit.branchMispredicts          5308118                       # The number of times a branch was mispredicted
system.cpu0.commit.branches                 143206894                       # Number of branches committed
system.cpu0.commit.bw_lim_events             16437719                       # number cycles where commit BW limit reached
system.cpu0.commit.commitNonSpecStalls        3058518                       # The number of times commit has been forced to stall to communicate backwards
system.cpu0.commit.commitSquashedInsts       42874833                       # The number of squashed insts skipped by commit
system.cpu0.commit.committedInsts           580300134                       # Number of instructions committed
system.cpu0.commit.committedOps             581319627                       # Number of ops (including micro ops) committed
system.cpu0.commit.committed_per_cycle::samples   1075210126                       # Number of insts commited each cycle
system.cpu0.commit.committed_per_cycle::mean     0.540657                       # Number of insts commited each cycle
system.cpu0.commit.committed_per_cycle::stdev     1.302964                       # Number of insts commited each cycle
system.cpu0.commit.committed_per_cycle::underflows            0      0.00%      0.00% # Number of insts commited each cycle
system.cpu0.commit.committed_per_cycle::0    789969718     73.47%     73.47% # Number of insts commited each cycle
system.cpu0.commit.committed_per_cycle::1    173971673     16.18%     89.65% # Number of insts commited each cycle
system.cpu0.commit.committed_per_cycle::2     40077506      3.73%     93.38% # Number of insts commited each cycle
system.cpu0.commit.committed_per_cycle::3     36207645      3.37%     96.75% # Number of insts commited each cycle
system.cpu0.commit.committed_per_cycle::4     11047141      1.03%     97.77% # Number of insts commited each cycle
system.cpu0.commit.committed_per_cycle::5      4142693      0.39%     98.16% # Number of insts commited each cycle
system.cpu0.commit.committed_per_cycle::6      1325991      0.12%     98.28% # Number of insts commited each cycle
system.cpu0.commit.committed_per_cycle::7      2030040      0.19%     98.47% # Number of insts commited each cycle
system.cpu0.commit.committed_per_cycle::8     16437719      1.53%    100.00% # Number of insts commited each cycle
system.cpu0.commit.committed_per_cycle::overflows            0      0.00%    100.00% # Number of insts commited each cycle
system.cpu0.commit.committed_per_cycle::min_value            0                       # Number of insts commited each cycle
system.cpu0.commit.committed_per_cycle::max_value            8                       # Number of insts commited each cycle
system.cpu0.commit.committed_per_cycle::total   1075210126                       # Number of insts commited each cycle
system.cpu0.commit.fp_insts                        46                       # Number of committed floating point instructions.
system.cpu0.commit.function_calls            11887521                       # Number of function calls committed.
system.cpu0.commit.int_insts                561302276                       # Number of committed integer instructions.
system.cpu0.commit.loads                    179957180                       # Number of loads committed
system.cpu0.commit.membars                    2037593                       # Number of memory barriers committed
system.cpu0.commit.op_class_0::No_OpClass      2037599      0.35%      0.35% # Class of committed instruction
system.cpu0.commit.op_class_0::IntAlu       322231919     55.43%     55.78% # Class of committed instruction
system.cpu0.commit.op_class_0::IntMult        4135822      0.71%     56.49% # Class of committed instruction
system.cpu0.commit.op_class_0::IntDiv         1017773      0.18%     56.67% # Class of committed instruction
system.cpu0.commit.op_class_0::FloatAdd             0      0.00%     56.67% # Class of committed instruction
system.cpu0.commit.op_class_0::FloatCmp             4      0.00%     56.67% # Class of committed instruction
system.cpu0.commit.op_class_0::FloatCvt            12      0.00%     56.67% # Class of committed instruction
system.cpu0.commit.op_class_0::FloatMult            0      0.00%     56.67% # Class of committed instruction
system.cpu0.commit.op_class_0::FloatMultAcc            0      0.00%     56.67% # Class of committed instruction
system.cpu0.commit.op_class_0::FloatDiv             2      0.00%     56.67% # Class of committed instruction
system.cpu0.commit.op_class_0::FloatMisc            4      0.00%     56.67% # Class of committed instruction
system.cpu0.commit.op_class_0::FloatSqrt            0      0.00%     56.67% # Class of committed instruction
system.cpu0.commit.op_class_0::SimdAdd              0      0.00%     56.67% # Class of committed instruction
system.cpu0.commit.op_class_0::SimdAddAcc            0      0.00%     56.67% # Class of committed instruction
system.cpu0.commit.op_class_0::SimdAlu              0      0.00%     56.67% # Class of committed instruction
system.cpu0.commit.op_class_0::SimdCmp              0      0.00%     56.67% # Class of committed instruction
system.cpu0.commit.op_class_0::SimdCvt              0      0.00%     56.67% # Class of committed instruction
system.cpu0.commit.op_class_0::SimdMisc             0      0.00%     56.67% # Class of committed instruction
system.cpu0.commit.op_class_0::SimdMult             0      0.00%     56.67% # Class of committed instruction
system.cpu0.commit.op_class_0::SimdMultAcc            0      0.00%     56.67% # Class of committed instruction
system.cpu0.commit.op_class_0::SimdShift            0      0.00%     56.67% # Class of committed instruction
system.cpu0.commit.op_class_0::SimdShiftAcc            0      0.00%     56.67% # Class of committed instruction
system.cpu0.commit.op_class_0::SimdDiv              0      0.00%     56.67% # Class of committed instruction
system.cpu0.commit.op_class_0::SimdSqrt             0      0.00%     56.67% # Class of committed instruction
system.cpu0.commit.op_class_0::SimdFloatAdd            0      0.00%     56.67% # Class of committed instruction
system.cpu0.commit.op_class_0::SimdFloatAlu            0      0.00%     56.67% # Class of committed instruction
system.cpu0.commit.op_class_0::SimdFloatCmp            0      0.00%     56.67% # Class of committed instruction
system.cpu0.commit.op_class_0::SimdFloatCvt            0      0.00%     56.67% # Class of committed instruction
system.cpu0.commit.op_class_0::SimdFloatDiv            0      0.00%     56.67% # Class of committed instruction
system.cpu0.commit.op_class_0::SimdFloatMisc            0      0.00%     56.67% # Class of committed instruction
system.cpu0.commit.op_class_0::SimdFloatMult            0      0.00%     56.67% # Class of committed instruction
system.cpu0.commit.op_class_0::SimdFloatMultAcc            0      0.00%     56.67% # Class of committed instruction
system.cpu0.commit.op_class_0::SimdFloatSqrt            0      0.00%     56.67% # Class of committed instruction
system.cpu0.commit.op_class_0::SimdReduceAdd            0      0.00%     56.67% # Class of committed instruction
system.cpu0.commit.op_class_0::SimdReduceAlu            0      0.00%     56.67% # Class of committed instruction
system.cpu0.commit.op_class_0::SimdReduceCmp            0      0.00%     56.67% # Class of committed instruction
system.cpu0.commit.op_class_0::SimdFloatReduceAdd            0      0.00%     56.67% # Class of committed instruction
system.cpu0.commit.op_class_0::SimdFloatReduceCmp            0      0.00%     56.67% # Class of committed instruction
system.cpu0.commit.op_class_0::SimdAes              0      0.00%     56.67% # Class of committed instruction
system.cpu0.commit.op_class_0::SimdAesMix            0      0.00%     56.67% # Class of committed instruction
system.cpu0.commit.op_class_0::SimdSha1Hash            0      0.00%     56.67% # Class of committed instruction
system.cpu0.commit.op_class_0::SimdSha1Hash2            0      0.00%     56.67% # Class of committed instruction
system.cpu0.commit.op_class_0::SimdSha256Hash            0      0.00%     56.67% # Class of committed instruction
system.cpu0.commit.op_class_0::SimdSha256Hash2            0      0.00%     56.67% # Class of committed instruction
system.cpu0.commit.op_class_0::SimdShaSigma2            0      0.00%     56.67% # Class of committed instruction
system.cpu0.commit.op_class_0::SimdShaSigma3            0      0.00%     56.67% # Class of committed instruction
system.cpu0.commit.op_class_0::SimdPredAlu            0      0.00%     56.67% # Class of committed instruction
system.cpu0.commit.op_class_0::MemRead      180975388     31.13%     87.80% # Class of committed instruction
system.cpu0.commit.op_class_0::MemWrite      70921080     12.20%    100.00% # Class of committed instruction
system.cpu0.commit.op_class_0::FloatMemRead            8      0.00%    100.00% # Class of committed instruction
system.cpu0.commit.op_class_0::FloatMemWrite           16      0.00%    100.00% # Class of committed instruction
system.cpu0.commit.op_class_0::IprAccess            0      0.00%    100.00% # Class of committed instruction
system.cpu0.commit.op_class_0::InstPrefetch            0      0.00%    100.00% # Class of committed instruction
system.cpu0.commit.op_class_0::total        581319627                       # Class of committed instruction
system.cpu0.commit.refs                     251896492                       # Number of memory references committed
system.cpu0.commit.swp_count                        0                       # Number of s/w prefetches committed
system.cpu0.commit.vec_insts                        0                       # Number of committed Vector instructions.
system.cpu0.committedInsts                  580300134                       # Number of Instructions Simulated
system.cpu0.committedOps                    581319627                       # Number of Ops (including micro ops) Simulated
system.cpu0.cpi                              2.004471                       # CPI: Cycles Per Instruction
system.cpu0.cpi_total                        2.004471                       # CPI: Total CPI of All Threads
system.cpu0.decode.BlockedCycles            184896742                       # Number of cycles decode is blocked
system.cpu0.decode.BranchMispred              2371039                       # Number of times decode detected a branch misprediction
system.cpu0.decode.BranchResolved            77526400                       # Number of times decode resolved a branch
system.cpu0.decode.DecodedInsts             638505475                       # Number of instructions handled by decode
system.cpu0.decode.IdleCycles               448720595                       # Number of cycles decode is idle
system.cpu0.decode.RunCycles                441940949                       # Number of cycles decode is running
system.cpu0.decode.SquashCycles               5314936                       # Number of cycles decode is squashing
system.cpu0.decode.SquashedInsts              4476161                       # Number of squashed instructions handled by decode
system.cpu0.decode.UnblockCycles              2884986                       # Number of cycles decode is unblocking
system.cpu0.dtb.accesses                            0                       # DTB accesses
system.cpu0.dtb.hits                                0                       # DTB hits
system.cpu0.dtb.misses                              0                       # DTB misses
system.cpu0.dtb.read_accesses                       0                       # DTB read accesses
system.cpu0.dtb.read_hits                           0                       # DTB read hits
system.cpu0.dtb.read_misses                         0                       # DTB read misses
system.cpu0.dtb.write_accesses                      0                       # DTB write accesses
system.cpu0.dtb.write_hits                          0                       # DTB write hits
system.cpu0.dtb.write_misses                        0                       # DTB write misses
system.cpu0.fetch.Branches                  155581290                       # Number of branches that fetch encountered
system.cpu0.fetch.CacheLines                110426636                       # Number of cache lines fetched
system.cpu0.fetch.Cycles                    632993531                       # Number of cycles fetch has run and was not squashing or blocked
system.cpu0.fetch.IcacheSquashes              3037483                       # Number of outstanding Icache misses that were squashed
system.cpu0.fetch.IcacheWaitRetryStallCycles          164                       # Number of stall cycles due to full MSHR
system.cpu0.fetch.Insts                     650267164                       # Number of instructions fetch has processed
system.cpu0.fetch.MiscStallCycles                  26                       # Number of cycles fetch has spent waiting on interrupts, or bad addresses, or out of MSHRs
system.cpu0.fetch.PendingTrapStallCycles           11                       # Number of stall cycles due to pending traps
system.cpu0.fetch.SquashCycles               15349610                       # Number of cycles fetch has spent squashing
system.cpu0.fetch.branchRate                 0.133753                       # Number of branch fetches per cycle
system.cpu0.fetch.icacheStallCycles         443089671                       # Number of cycles fetch is stalled on an Icache miss
system.cpu0.fetch.predictedBranches          88978452                       # Number of branches that fetch has predicted taken
system.cpu0.fetch.rate                       0.559035                       # Number of inst fetches per cycle
system.cpu0.fetch.rateDist::samples        1083758208                       # Number of instructions fetched each cycle (Total)
system.cpu0.fetch.rateDist::mean             0.601452                       # Number of instructions fetched each cycle (Total)
system.cpu0.fetch.rateDist::stdev            0.889476                       # Number of instructions fetched each cycle (Total)
system.cpu0.fetch.rateDist::underflows              0      0.00%      0.00% # Number of instructions fetched each cycle (Total)
system.cpu0.fetch.rateDist::0               621662331     57.36%     57.36% # Number of instructions fetched each cycle (Total)
system.cpu0.fetch.rateDist::1               340990894     31.46%     88.83% # Number of instructions fetched each cycle (Total)
system.cpu0.fetch.rateDist::2                72874273      6.72%     95.55% # Number of instructions fetched each cycle (Total)
system.cpu0.fetch.rateDist::3                38428372      3.55%     99.10% # Number of instructions fetched each cycle (Total)
system.cpu0.fetch.rateDist::4                 4593118      0.42%     99.52% # Number of instructions fetched each cycle (Total)
system.cpu0.fetch.rateDist::5                 2890480      0.27%     99.79% # Number of instructions fetched each cycle (Total)
system.cpu0.fetch.rateDist::6                  274679      0.03%     99.81% # Number of instructions fetched each cycle (Total)
system.cpu0.fetch.rateDist::7                 1021751      0.09%     99.91% # Number of instructions fetched each cycle (Total)
system.cpu0.fetch.rateDist::8                 1022310      0.09%    100.00% # Number of instructions fetched each cycle (Total)
system.cpu0.fetch.rateDist::overflows               0      0.00%    100.00% # Number of instructions fetched each cycle (Total)
system.cpu0.fetch.rateDist::min_value               0                       # Number of instructions fetched each cycle (Total)
system.cpu0.fetch.rateDist::max_value               8                       # Number of instructions fetched each cycle (Total)
system.cpu0.fetch.rateDist::total          1083758208                       # Number of instructions fetched each cycle (Total)
system.cpu0.fp_regfile_reads                       40                       # number of floating regfile reads
system.cpu0.fp_regfile_writes                      26                       # number of floating regfile writes
system.cpu0.idleCycles                       79436562                       # Total number of cycles that the CPU has spent unscheduled due to idling
system.cpu0.iew.branchMispredicts             5382778                       # Number of branch mispredicts detected at execute
system.cpu0.iew.exec_branches               147383894                       # Number of branches executed
system.cpu0.iew.exec_nop                            0                       # number of nop insts executed
system.cpu0.iew.exec_rate                    0.525816                       # Inst execution rate
system.cpu0.iew.exec_refs                   268835953                       # number of memory reference insts executed
system.cpu0.iew.exec_stores                  75009825                       # Number of stores executed
system.cpu0.iew.exec_swp                            0                       # number of swp insts executed
system.cpu0.iew.iewBlockCycles              153842378                       # Number of cycles IEW is blocking
system.cpu0.iew.iewDispLoadInsts            195892582                       # Number of dispatched load instructions
system.cpu0.iew.iewDispNonSpecInsts           1268191                       # Number of dispatched non-speculative instructions
system.cpu0.iew.iewDispSquashedInsts          2589672                       # Number of squashed instructions skipped by dispatch
system.cpu0.iew.iewDispStoreInsts            77104587                       # Number of dispatched store instructions
system.cpu0.iew.iewDispatchedInsts          624167303                       # Number of instructions dispatched to IQ
system.cpu0.iew.iewExecLoadInsts            193826128                       # Number of load instructions executed
system.cpu0.iew.iewExecSquashedInsts          5356461                       # Number of squashed instructions skipped in execute
system.cpu0.iew.iewExecutedInsts            611626746                       # Number of executed instructions
system.cpu0.iew.iewIQFullEvents                757406                       # Number of times the IQ has become full, causing a stall
system.cpu0.iew.iewIdleCycles                       0                       # Number of cycles IEW is idle
system.cpu0.iew.iewLSQFullEvents              3901913                       # Number of times the LSQ has become full, causing a stall
system.cpu0.iew.iewSquashCycles               5314936                       # Number of cycles IEW is squashing
system.cpu0.iew.iewUnblockCycles              5750719                       # Number of cycles IEW is unblocking
system.cpu0.iew.lsq.thread0.blockedLoads            0                       # Number of blocked loads due to partial load-store forwarding
system.cpu0.iew.lsq.thread0.cacheBlocked        80972                       # Number of times an access to memory failed due to the cache being blocked
system.cpu0.iew.lsq.thread0.forwLoads         8561270                       # Number of loads that had data forwarded from stores
system.cpu0.iew.lsq.thread0.ignoredResponses        30833                       # Number of memory responses ignored because the instruction is squashed
system.cpu0.iew.lsq.thread0.invAddrLoads            0                       # Number of loads ignored due to an invalid address
system.cpu0.iew.lsq.thread0.invAddrSwpfs            0                       # Number of software prefetches ignored due to an invalid address
system.cpu0.iew.lsq.thread0.memOrderViolation         8041                       # Number of memory ordering violations
system.cpu0.iew.lsq.thread0.rescheduledLoads      2407126                       # Number of loads that were rescheduled
system.cpu0.iew.lsq.thread0.squashedLoads     15935402                       # Number of loads squashed
system.cpu0.iew.lsq.thread0.squashedStores      5165275                       # Number of stores squashed
system.cpu0.iew.memOrderViolationEvents          8041                       # Number of memory order violations
system.cpu0.iew.predictedNotTakenIncorrect      1039654                       # Number of branches that were predicted not taken incorrectly
system.cpu0.iew.predictedTakenIncorrect       4343124                       # Number of branches that were predicted taken incorrectly
system.cpu0.iew.wb_consumers                251737178                       # num instructions consuming a value
system.cpu0.iew.wb_count                    605606406                       # cumulative count of insts written-back
system.cpu0.iew.wb_fanout                    0.885859                       # average fanout of values written-back
system.cpu0.iew.wb_producers                223003626                       # num instructions producing a value
system.cpu0.iew.wb_rate                      0.520641                       # insts written-back per cycle
system.cpu0.iew.wb_sent                     605657375                       # cumulative count of insts sent to commit
system.cpu0.int_regfile_reads               746045350                       # number of integer regfile reads
system.cpu0.int_regfile_writes              387849905                       # number of integer regfile writes
system.cpu0.ipc                              0.498885                       # IPC: Instructions Per Cycle
system.cpu0.ipc_total                        0.498885                       # IPC: Total IPC of All Threads
system.cpu0.iq.FU_type_0::No_OpClass          2038481      0.33%      0.33% # Type of FU issued
system.cpu0.iq.FU_type_0::IntAlu            338174699     54.81%     55.14% # Type of FU issued
system.cpu0.iq.FU_type_0::IntMult             4138583      0.67%     55.81% # Type of FU issued
system.cpu0.iq.FU_type_0::IntDiv              1018054      0.17%     55.98% # Type of FU issued
system.cpu0.iq.FU_type_0::FloatAdd                  0      0.00%     55.98% # Type of FU issued
system.cpu0.iq.FU_type_0::FloatCmp                  4      0.00%     55.98% # Type of FU issued
system.cpu0.iq.FU_type_0::FloatCvt                 12      0.00%     55.98% # Type of FU issued
system.cpu0.iq.FU_type_0::FloatMult                 0      0.00%     55.98% # Type of FU issued
system.cpu0.iq.FU_type_0::FloatMultAcc              0      0.00%     55.98% # Type of FU issued
system.cpu0.iq.FU_type_0::FloatDiv                  2      0.00%     55.98% # Type of FU issued
system.cpu0.iq.FU_type_0::FloatMisc                 4      0.00%     55.98% # Type of FU issued
system.cpu0.iq.FU_type_0::FloatSqrt                 0      0.00%     55.98% # Type of FU issued
system.cpu0.iq.FU_type_0::SimdAdd                   0      0.00%     55.98% # Type of FU issued
system.cpu0.iq.FU_type_0::SimdAddAcc                0      0.00%     55.98% # Type of FU issued
system.cpu0.iq.FU_type_0::SimdAlu                   0      0.00%     55.98% # Type of FU issued
system.cpu0.iq.FU_type_0::SimdCmp                   0      0.00%     55.98% # Type of FU issued
system.cpu0.iq.FU_type_0::SimdCvt                   0      0.00%     55.98% # Type of FU issued
system.cpu0.iq.FU_type_0::SimdMisc                  0      0.00%     55.98% # Type of FU issued
system.cpu0.iq.FU_type_0::SimdMult                  0      0.00%     55.98% # Type of FU issued
system.cpu0.iq.FU_type_0::SimdMultAcc               0      0.00%     55.98% # Type of FU issued
system.cpu0.iq.FU_type_0::SimdShift                 0      0.00%     55.98% # Type of FU issued
system.cpu0.iq.FU_type_0::SimdShiftAcc              0      0.00%     55.98% # Type of FU issued
system.cpu0.iq.FU_type_0::SimdDiv                   0      0.00%     55.98% # Type of FU issued
system.cpu0.iq.FU_type_0::SimdSqrt                  0      0.00%     55.98% # Type of FU issued
system.cpu0.iq.FU_type_0::SimdFloatAdd              0      0.00%     55.98% # Type of FU issued
system.cpu0.iq.FU_type_0::SimdFloatAlu              0      0.00%     55.98% # Type of FU issued
system.cpu0.iq.FU_type_0::SimdFloatCmp              0      0.00%     55.98% # Type of FU issued
system.cpu0.iq.FU_type_0::SimdFloatCvt              0      0.00%     55.98% # Type of FU issued
system.cpu0.iq.FU_type_0::SimdFloatDiv              0      0.00%     55.98% # Type of FU issued
system.cpu0.iq.FU_type_0::SimdFloatMisc             0      0.00%     55.98% # Type of FU issued
system.cpu0.iq.FU_type_0::SimdFloatMult             0      0.00%     55.98% # Type of FU issued
system.cpu0.iq.FU_type_0::SimdFloatMultAcc            0      0.00%     55.98% # Type of FU issued
system.cpu0.iq.FU_type_0::SimdFloatSqrt             0      0.00%     55.98% # Type of FU issued
system.cpu0.iq.FU_type_0::SimdReduceAdd             0      0.00%     55.98% # Type of FU issued
system.cpu0.iq.FU_type_0::SimdReduceAlu             0      0.00%     55.98% # Type of FU issued
system.cpu0.iq.FU_type_0::SimdReduceCmp             0      0.00%     55.98% # Type of FU issued
system.cpu0.iq.FU_type_0::SimdFloatReduceAdd            0      0.00%     55.98% # Type of FU issued
system.cpu0.iq.FU_type_0::SimdFloatReduceCmp            0      0.00%     55.98% # Type of FU issued
system.cpu0.iq.FU_type_0::SimdAes                   0      0.00%     55.98% # Type of FU issued
system.cpu0.iq.FU_type_0::SimdAesMix                0      0.00%     55.98% # Type of FU issued
system.cpu0.iq.FU_type_0::SimdSha1Hash              0      0.00%     55.98% # Type of FU issued
system.cpu0.iq.FU_type_0::SimdSha1Hash2             0      0.00%     55.98% # Type of FU issued
system.cpu0.iq.FU_type_0::SimdSha256Hash            0      0.00%     55.98% # Type of FU issued
system.cpu0.iq.FU_type_0::SimdSha256Hash2            0      0.00%     55.98% # Type of FU issued
system.cpu0.iq.FU_type_0::SimdShaSigma2             0      0.00%     55.98% # Type of FU issued
system.cpu0.iq.FU_type_0::SimdShaSigma3             0      0.00%     55.98% # Type of FU issued
system.cpu0.iq.FU_type_0::SimdPredAlu               0      0.00%     55.98% # Type of FU issued
system.cpu0.iq.FU_type_0::MemRead           196649497     31.87%     87.85% # Type of FU issued
system.cpu0.iq.FU_type_0::MemWrite           74963842     12.15%    100.00% # Type of FU issued
system.cpu0.iq.FU_type_0::FloatMemRead             14      0.00%    100.00% # Type of FU issued
system.cpu0.iq.FU_type_0::FloatMemWrite            16      0.00%    100.00% # Type of FU issued
system.cpu0.iq.FU_type_0::IprAccess                 0      0.00%    100.00% # Type of FU issued
system.cpu0.iq.FU_type_0::InstPrefetch              0      0.00%    100.00% # Type of FU issued
system.cpu0.iq.FU_type_0::total             616983208                       # Type of FU issued
system.cpu0.iq.fp_alu_accesses                     54                       # Number of floating point alu accesses
system.cpu0.iq.fp_inst_queue_reads                106                       # Number of floating instruction queue reads
system.cpu0.iq.fp_inst_queue_wakeup_accesses           50                       # Number of floating instruction queue wakeup accesses
system.cpu0.iq.fp_inst_queue_writes               158                       # Number of floating instruction queue writes
system.cpu0.iq.fu_busy_cnt                    1264307                       # FU busy when requested
system.cpu0.iq.fu_busy_rate                  0.002049                       # FU busy rate (busy events/executed inst)
system.cpu0.iq.fu_full::No_OpClass                  0      0.00%      0.00% # attempts to use FU when none available
system.cpu0.iq.fu_full::IntAlu                 247134     19.55%     19.55% # attempts to use FU when none available
system.cpu0.iq.fu_full::IntMult                     0      0.00%     19.55% # attempts to use FU when none available
system.cpu0.iq.fu_full::IntDiv                      0      0.00%     19.55% # attempts to use FU when none available
system.cpu0.iq.fu_full::FloatAdd                    0      0.00%     19.55% # attempts to use FU when none available
system.cpu0.iq.fu_full::FloatCmp                    0      0.00%     19.55% # attempts to use FU when none available
system.cpu0.iq.fu_full::FloatCvt                    0      0.00%     19.55% # attempts to use FU when none available
system.cpu0.iq.fu_full::FloatMult                   0      0.00%     19.55% # attempts to use FU when none available
system.cpu0.iq.fu_full::FloatMultAcc                0      0.00%     19.55% # attempts to use FU when none available
system.cpu0.iq.fu_full::FloatDiv                    0      0.00%     19.55% # attempts to use FU when none available
system.cpu0.iq.fu_full::FloatMisc                   0      0.00%     19.55% # attempts to use FU when none available
system.cpu0.iq.fu_full::FloatSqrt                   0      0.00%     19.55% # attempts to use FU when none available
system.cpu0.iq.fu_full::SimdAdd                     0      0.00%     19.55% # attempts to use FU when none available
system.cpu0.iq.fu_full::SimdAddAcc                  0      0.00%     19.55% # attempts to use FU when none available
system.cpu0.iq.fu_full::SimdAlu                     0      0.00%     19.55% # attempts to use FU when none available
system.cpu0.iq.fu_full::SimdCmp                     0      0.00%     19.55% # attempts to use FU when none available
system.cpu0.iq.fu_full::SimdCvt                     0      0.00%     19.55% # attempts to use FU when none available
system.cpu0.iq.fu_full::SimdMisc                    0      0.00%     19.55% # attempts to use FU when none available
system.cpu0.iq.fu_full::SimdMult                    0      0.00%     19.55% # attempts to use FU when none available
system.cpu0.iq.fu_full::SimdMultAcc                 0      0.00%     19.55% # attempts to use FU when none available
system.cpu0.iq.fu_full::SimdShift                   0      0.00%     19.55% # attempts to use FU when none available
system.cpu0.iq.fu_full::SimdShiftAcc                0      0.00%     19.55% # attempts to use FU when none available
system.cpu0.iq.fu_full::SimdDiv                     0      0.00%     19.55% # attempts to use FU when none available
system.cpu0.iq.fu_full::SimdSqrt                    0      0.00%     19.55% # attempts to use FU when none available
system.cpu0.iq.fu_full::SimdFloatAdd                0      0.00%     19.55% # attempts to use FU when none available
system.cpu0.iq.fu_full::SimdFloatAlu                0      0.00%     19.55% # attempts to use FU when none available
system.cpu0.iq.fu_full::SimdFloatCmp                0      0.00%     19.55% # attempts to use FU when none available
system.cpu0.iq.fu_full::SimdFloatCvt                0      0.00%     19.55% # attempts to use FU when none available
system.cpu0.iq.fu_full::SimdFloatDiv                0      0.00%     19.55% # attempts to use FU when none available
system.cpu0.iq.fu_full::SimdFloatMisc               0      0.00%     19.55% # attempts to use FU when none available
system.cpu0.iq.fu_full::SimdFloatMult               0      0.00%     19.55% # attempts to use FU when none available
system.cpu0.iq.fu_full::SimdFloatMultAcc            0      0.00%     19.55% # attempts to use FU when none available
system.cpu0.iq.fu_full::SimdFloatSqrt               0      0.00%     19.55% # attempts to use FU when none available
system.cpu0.iq.fu_full::SimdReduceAdd               0      0.00%     19.55% # attempts to use FU when none available
system.cpu0.iq.fu_full::SimdReduceAlu               0      0.00%     19.55% # attempts to use FU when none available
system.cpu0.iq.fu_full::SimdReduceCmp               0      0.00%     19.55% # attempts to use FU when none available
system.cpu0.iq.fu_full::SimdFloatReduceAdd            0      0.00%     19.55% # attempts to use FU when none available
system.cpu0.iq.fu_full::SimdFloatReduceCmp            0      0.00%     19.55% # attempts to use FU when none available
system.cpu0.iq.fu_full::SimdAes                     0      0.00%     19.55% # attempts to use FU when none available
system.cpu0.iq.fu_full::SimdAesMix                  0      0.00%     19.55% # attempts to use FU when none available
system.cpu0.iq.fu_full::SimdSha1Hash                0      0.00%     19.55% # attempts to use FU when none available
system.cpu0.iq.fu_full::SimdSha1Hash2               0      0.00%     19.55% # attempts to use FU when none available
system.cpu0.iq.fu_full::SimdSha256Hash              0      0.00%     19.55% # attempts to use FU when none available
system.cpu0.iq.fu_full::SimdSha256Hash2             0      0.00%     19.55% # attempts to use FU when none available
system.cpu0.iq.fu_full::SimdShaSigma2               0      0.00%     19.55% # attempts to use FU when none available
system.cpu0.iq.fu_full::SimdShaSigma3               0      0.00%     19.55% # attempts to use FU when none available
system.cpu0.iq.fu_full::SimdPredAlu                 0      0.00%     19.55% # attempts to use FU when none available
system.cpu0.iq.fu_full::MemRead                932877     73.79%     93.33% # attempts to use FU when none available
system.cpu0.iq.fu_full::MemWrite                84294      6.67%    100.00% # attempts to use FU when none available
system.cpu0.iq.fu_full::FloatMemRead                0      0.00%    100.00% # attempts to use FU when none available
system.cpu0.iq.fu_full::FloatMemWrite               2      0.00%    100.00% # attempts to use FU when none available
system.cpu0.iq.fu_full::IprAccess                   0      0.00%    100.00% # attempts to use FU when none available
system.cpu0.iq.fu_full::InstPrefetch                0      0.00%    100.00% # attempts to use FU when none available
system.cpu0.iq.int_alu_accesses             616208980                       # Number of integer alu accesses
system.cpu0.iq.int_inst_queue_reads        2319065119                       # Number of integer instruction queue reads
system.cpu0.iq.int_inst_queue_wakeup_accesses    605606356                       # Number of integer instruction queue wakeup accesses
system.cpu0.iq.int_inst_queue_writes        667021974                       # Number of integer instruction queue writes
system.cpu0.iq.iqInstsAdded                 620369520                       # Number of instructions added to the IQ (excludes non-spec)
system.cpu0.iq.iqInstsIssued                616983208                       # Number of instructions issued
system.cpu0.iq.iqNonSpecInstsAdded            3797783                       # Number of non-speculative instructions added to the IQ
system.cpu0.iq.iqSquashedInstsExamined       42847672                       # Number of squashed instructions iterated over during squash; mainly for profiling
system.cpu0.iq.iqSquashedInstsIssued            76295                       # Number of squashed instructions issued
system.cpu0.iq.iqSquashedNonSpecRemoved        739265                       # Number of squashed non-spec instructions that were removed
system.cpu0.iq.iqSquashedOperandsExamined     19764706                       # Number of squashed operands that are examined and possibly removed from graph
system.cpu0.iq.issued_per_cycle::samples   1083758208                       # Number of insts issued each cycle
system.cpu0.iq.issued_per_cycle::mean        0.569300                       # Number of insts issued each cycle
system.cpu0.iq.issued_per_cycle::stdev       0.799859                       # Number of insts issued each cycle
system.cpu0.iq.issued_per_cycle::underflows            0      0.00%      0.00% # Number of insts issued each cycle
system.cpu0.iq.issued_per_cycle::0          635148249     58.61%     58.61% # Number of insts issued each cycle
system.cpu0.iq.issued_per_cycle::1          312838951     28.87%     87.47% # Number of insts issued each cycle
system.cpu0.iq.issued_per_cycle::2          111791786     10.32%     97.79% # Number of insts issued each cycle
system.cpu0.iq.issued_per_cycle::3           18295028      1.69%     99.48% # Number of insts issued each cycle
system.cpu0.iq.issued_per_cycle::4            3680918      0.34%     99.82% # Number of insts issued each cycle
system.cpu0.iq.issued_per_cycle::5            1331626      0.12%     99.94% # Number of insts issued each cycle
system.cpu0.iq.issued_per_cycle::6             483976      0.04%     99.98% # Number of insts issued each cycle
system.cpu0.iq.issued_per_cycle::7             111449      0.01%     99.99% # Number of insts issued each cycle
system.cpu0.iq.issued_per_cycle::8              76225      0.01%    100.00% # Number of insts issued each cycle
system.cpu0.iq.issued_per_cycle::overflows            0      0.00%    100.00% # Number of insts issued each cycle
system.cpu0.iq.issued_per_cycle::min_value            0                       # Number of insts issued each cycle
system.cpu0.iq.issued_per_cycle::max_value            8                       # Number of insts issued each cycle
system.cpu0.iq.issued_per_cycle::total     1083758208                       # Number of insts issued each cycle
system.cpu0.iq.rate                          0.530421                       # Inst issue rate
system.cpu0.iq.vec_alu_accesses                     0                       # Number of vector alu accesses
system.cpu0.iq.vec_inst_queue_reads                 0                       # Number of vector instruction queue reads
system.cpu0.iq.vec_inst_queue_wakeup_accesses            0                       # Number of vector instruction queue wakeup accesses
system.cpu0.iq.vec_inst_queue_writes                0                       # Number of vector instruction queue writes
system.cpu0.itb.accesses                            0                       # DTB accesses
system.cpu0.itb.hits                                0                       # DTB hits
system.cpu0.itb.misses                              0                       # DTB misses
system.cpu0.itb.read_accesses                       0                       # DTB read accesses
system.cpu0.itb.read_hits                           0                       # DTB read hits
system.cpu0.itb.read_misses                         0                       # DTB read misses
system.cpu0.itb.write_accesses                      0                       # DTB write accesses
system.cpu0.itb.write_hits                          0                       # DTB write hits
system.cpu0.itb.write_misses                        0                       # DTB write misses
system.cpu0.memDep0.conflictingLoads         11330501                       # Number of conflicting loads.
system.cpu0.memDep0.conflictingStores         2107074                       # Number of conflicting stores.
system.cpu0.memDep0.insertedLoads           195892582                       # Number of loads inserted to the mem dependence unit.
system.cpu0.memDep0.insertedStores           77104587                       # Number of stores inserted to the mem dependence unit.
system.cpu0.misc_regfile_reads                    892                       # number of misc regfile reads
system.cpu0.misc_regfile_writes                    22                       # number of misc regfile writes
system.cpu0.numCycles                      1163194770                       # number of cpu cycles simulated
system.cpu0.numWorkItemsCompleted                   0                       # number of work items this cpu completed
system.cpu0.numWorkItemsStarted                     0                       # number of work items this cpu started
system.cpu0.quiesceCycles                     7885983                       # Total number of cycles that CPU has spent quiesced or waiting for an interrupt
system.cpu0.rename.BlockCycles              165796567                       # Number of cycles rename is blocking
system.cpu0.rename.CommittedMaps            370576268                       # Number of HB maps that are committed
system.cpu0.rename.IQFullEvents               6063654                       # Number of times rename has blocked due to IQ full
system.cpu0.rename.IdleCycles               455121529                       # Number of cycles rename is idle
system.cpu0.rename.LQFullEvents               6807666                       # Number of times rename has blocked due to LQ full
system.cpu0.rename.ROBFullEvents                13877                       # Number of times rename has blocked due to ROB full
system.cpu0.rename.RenameLookups            772767847                       # Number of register rename lookups that rename has made
system.cpu0.rename.RenamedInsts             632572987                       # Number of instructions processed by rename
system.cpu0.rename.RenamedOperands          406402923                       # Number of destination operands rename has renamed
system.cpu0.rename.RunCycles                437733887                       # Number of cycles rename is running
system.cpu0.rename.SQFullEvents               6641280                       # Number of times rename has blocked due to SQ full
system.cpu0.rename.SquashCycles               5314936                       # Number of cycles rename is squashing
system.cpu0.rename.UnblockCycles             19697438                       # Number of cycles rename is unblocking
system.cpu0.rename.UndoneMaps                35826647                       # Number of HB maps that are undone due to squashing
system.cpu0.rename.fp_rename_lookups               40                       # Number of floating rename lookups
system.cpu0.rename.int_rename_lookups       772767807                       # Number of integer rename lookups
system.cpu0.rename.serializeStallCycles         93851                       # count of cycles rename stalled for serializing inst
system.cpu0.rename.serializingInsts              2870                       # count of serializing insts renamed
system.cpu0.rename.skidInsts                 13245215                       # count of insts added to the skid buffer
system.cpu0.rename.tempSerializingInsts          2856                       # count of temporary serializing insts renamed
system.cpu0.rob.rob_reads                  1682955791                       # The number of ROB reads
system.cpu0.rob.rob_writes                 1256946245                       # The number of ROB writes
system.cpu0.timesIdled                       14464422                       # Number of times that the entire CPU went into an idle state and unscheduled itself
system.cpu0.workload.numSyscalls                  859                       # Number of system calls
system.cpu1.branchPred.BTBCorrect                   0                       # Number of correct BTB predictions (this stat may not work properly.
system.cpu1.branchPred.BTBHitPct            82.048244                       # BTB Hit Percentage
system.cpu1.branchPred.BTBHits                4476183                       # Number of BTB hits
system.cpu1.branchPred.BTBLookups             5455550                       # Number of BTB lookups
system.cpu1.branchPred.RASInCorrect                 0                       # Number of incorrect RAS predictions.
system.cpu1.branchPred.condIncorrect           819063                       # Number of conditional branches incorrect
system.cpu1.branchPred.condPredicted          7736814                       # Number of conditional branches predicted
system.cpu1.branchPred.indirectHits            210255                       # Number of indirect target hits.
system.cpu1.branchPred.indirectLookups         369984                       # Number of indirect predictor lookups.
system.cpu1.branchPred.indirectMisses          159729                       # Number of indirect misses.
system.cpu1.branchPred.lookups                8659817                       # Number of BP lookups
system.cpu1.branchPred.usedRAS                      0                       # Number of times the RAS was used to get a target.
system.cpu1.branchPredindirectMispredicted         3205                       # Number of mispredicted indirect branches.
system.cpu1.commit.amos                       1017931                       # Number of atomic instructions committed
system.cpu1.commit.branchMispredicts           484410                       # The number of times a branch was mispredicted
system.cpu1.commit.branches                   7095628                       # Number of branches committed
system.cpu1.commit.bw_lim_events               799295                       # number cycles where commit BW limit reached
system.cpu1.commit.commitNonSpecStalls        3054449                       # The number of times commit has been forced to stall to communicate backwards
system.cpu1.commit.commitSquashedInsts        4515513                       # The number of squashed insts skipped by commit
system.cpu1.commit.committedInsts            32264604                       # Number of instructions committed
system.cpu1.commit.committedOps              33282706                       # Number of ops (including micro ops) committed
system.cpu1.commit.committed_per_cycle::samples    193021530                       # Number of insts commited each cycle
system.cpu1.commit.committed_per_cycle::mean     0.172430                       # Number of insts commited each cycle
system.cpu1.commit.committed_per_cycle::stdev     0.820649                       # Number of insts commited each cycle
system.cpu1.commit.committed_per_cycle::underflows            0      0.00%      0.00% # Number of insts commited each cycle
system.cpu1.commit.committed_per_cycle::0    179087162     92.78%     92.78% # Number of insts commited each cycle
system.cpu1.commit.committed_per_cycle::1      7060447      3.66%     96.44% # Number of insts commited each cycle
system.cpu1.commit.committed_per_cycle::2      2359285      1.22%     97.66% # Number of insts commited each cycle
system.cpu1.commit.committed_per_cycle::3      2027979      1.05%     98.71% # Number of insts commited each cycle
system.cpu1.commit.committed_per_cycle::4       511927      0.27%     98.98% # Number of insts commited each cycle
system.cpu1.commit.committed_per_cycle::5       147695      0.08%     99.05% # Number of insts commited each cycle
system.cpu1.commit.committed_per_cycle::6       954971      0.49%     99.55% # Number of insts commited each cycle
system.cpu1.commit.committed_per_cycle::7        72769      0.04%     99.59% # Number of insts commited each cycle
system.cpu1.commit.committed_per_cycle::8       799295      0.41%    100.00% # Number of insts commited each cycle
system.cpu1.commit.committed_per_cycle::overflows            0      0.00%    100.00% # Number of insts commited each cycle
system.cpu1.commit.committed_per_cycle::min_value            0                       # Number of insts commited each cycle
system.cpu1.commit.committed_per_cycle::max_value            8                       # Number of insts commited each cycle
system.cpu1.commit.committed_per_cycle::total    193021530                       # Number of insts commited each cycle
system.cpu1.commit.fp_insts                        12                       # Number of committed floating point instructions.
system.cpu1.commit.function_calls              320870                       # Number of function calls committed.
system.cpu1.commit.int_insts                 31049501                       # Number of committed integer instructions.
system.cpu1.commit.loads                      9248747                       # Number of loads committed
system.cpu1.commit.membars                    2035972                       # Number of memory barriers committed
system.cpu1.commit.op_class_0::No_OpClass      2035972      6.12%      6.12% # Class of committed instruction
system.cpu1.commit.op_class_0::IntAlu        19083611     57.34%     63.46% # Class of committed instruction
system.cpu1.commit.op_class_0::IntMult             42      0.00%     63.46% # Class of committed instruction
system.cpu1.commit.op_class_0::IntDiv              84      0.00%     63.46% # Class of committed instruction
system.cpu1.commit.op_class_0::FloatAdd             0      0.00%     63.46% # Class of committed instruction
system.cpu1.commit.op_class_0::FloatCmp             0      0.00%     63.46% # Class of committed instruction
system.cpu1.commit.op_class_0::FloatCvt             0      0.00%     63.46% # Class of committed instruction
system.cpu1.commit.op_class_0::FloatMult            0      0.00%     63.46% # Class of committed instruction
system.cpu1.commit.op_class_0::FloatMultAcc            0      0.00%     63.46% # Class of committed instruction
system.cpu1.commit.op_class_0::FloatDiv             0      0.00%     63.46% # Class of committed instruction
system.cpu1.commit.op_class_0::FloatMisc            0      0.00%     63.46% # Class of committed instruction
system.cpu1.commit.op_class_0::FloatSqrt            0      0.00%     63.46% # Class of committed instruction
system.cpu1.commit.op_class_0::SimdAdd              0      0.00%     63.46% # Class of committed instruction
system.cpu1.commit.op_class_0::SimdAddAcc            0      0.00%     63.46% # Class of committed instruction
system.cpu1.commit.op_class_0::SimdAlu              0      0.00%     63.46% # Class of committed instruction
system.cpu1.commit.op_class_0::SimdCmp              0      0.00%     63.46% # Class of committed instruction
system.cpu1.commit.op_class_0::SimdCvt              0      0.00%     63.46% # Class of committed instruction
system.cpu1.commit.op_class_0::SimdMisc             0      0.00%     63.46% # Class of committed instruction
system.cpu1.commit.op_class_0::SimdMult             0      0.00%     63.46% # Class of committed instruction
system.cpu1.commit.op_class_0::SimdMultAcc            0      0.00%     63.46% # Class of committed instruction
system.cpu1.commit.op_class_0::SimdShift            0      0.00%     63.46% # Class of committed instruction
system.cpu1.commit.op_class_0::SimdShiftAcc            0      0.00%     63.46% # Class of committed instruction
system.cpu1.commit.op_class_0::SimdDiv              0      0.00%     63.46% # Class of committed instruction
system.cpu1.commit.op_class_0::SimdSqrt             0      0.00%     63.46% # Class of committed instruction
system.cpu1.commit.op_class_0::SimdFloatAdd            0      0.00%     63.46% # Class of committed instruction
system.cpu1.commit.op_class_0::SimdFloatAlu            0      0.00%     63.46% # Class of committed instruction
system.cpu1.commit.op_class_0::SimdFloatCmp            0      0.00%     63.46% # Class of committed instruction
system.cpu1.commit.op_class_0::SimdFloatCvt            0      0.00%     63.46% # Class of committed instruction
system.cpu1.commit.op_class_0::SimdFloatDiv            0      0.00%     63.46% # Class of committed instruction
system.cpu1.commit.op_class_0::SimdFloatMisc            0      0.00%     63.46% # Class of committed instruction
system.cpu1.commit.op_class_0::SimdFloatMult            0      0.00%     63.46% # Class of committed instruction
system.cpu1.commit.op_class_0::SimdFloatMultAcc            0      0.00%     63.46% # Class of committed instruction
system.cpu1.commit.op_class_0::SimdFloatSqrt            0      0.00%     63.46% # Class of committed instruction
system.cpu1.commit.op_class_0::SimdReduceAdd            0      0.00%     63.46% # Class of committed instruction
system.cpu1.commit.op_class_0::SimdReduceAlu            0      0.00%     63.46% # Class of committed instruction
system.cpu1.commit.op_class_0::SimdReduceCmp            0      0.00%     63.46% # Class of committed instruction
system.cpu1.commit.op_class_0::SimdFloatReduceAdd            0      0.00%     63.46% # Class of committed instruction
system.cpu1.commit.op_class_0::SimdFloatReduceCmp            0      0.00%     63.46% # Class of committed instruction
system.cpu1.commit.op_class_0::SimdAes              0      0.00%     63.46% # Class of committed instruction
system.cpu1.commit.op_class_0::SimdAesMix            0      0.00%     63.46% # Class of committed instruction
system.cpu1.commit.op_class_0::SimdSha1Hash            0      0.00%     63.46% # Class of committed instruction
system.cpu1.commit.op_class_0::SimdSha1Hash2            0      0.00%     63.46% # Class of committed instruction
system.cpu1.commit.op_class_0::SimdSha256Hash            0      0.00%     63.46% # Class of committed instruction
system.cpu1.commit.op_class_0::SimdSha256Hash2            0      0.00%     63.46% # Class of committed instruction
system.cpu1.commit.op_class_0::SimdShaSigma2            0      0.00%     63.46% # Class of committed instruction
system.cpu1.commit.op_class_0::SimdShaSigma3            0      0.00%     63.46% # Class of committed instruction
system.cpu1.commit.op_class_0::SimdPredAlu            0      0.00%     63.46% # Class of committed instruction
system.cpu1.commit.op_class_0::MemRead       10266678     30.85%     94.30% # Class of committed instruction
system.cpu1.commit.op_class_0::MemWrite       1896307      5.70%    100.00% # Class of committed instruction
system.cpu1.commit.op_class_0::FloatMemRead            0      0.00%    100.00% # Class of committed instruction
system.cpu1.commit.op_class_0::FloatMemWrite           12      0.00%    100.00% # Class of committed instruction
system.cpu1.commit.op_class_0::IprAccess            0      0.00%    100.00% # Class of committed instruction
system.cpu1.commit.op_class_0::InstPrefetch            0      0.00%    100.00% # Class of committed instruction
system.cpu1.commit.op_class_0::total         33282706                       # Class of committed instruction
system.cpu1.commit.refs                      12162997                       # Number of memory references committed
system.cpu1.commit.swp_count                        0                       # Number of s/w prefetches committed
system.cpu1.commit.vec_insts                        0                       # Number of committed Vector instructions.
system.cpu1.committedInsts                   32264604                       # Number of Instructions Simulated
system.cpu1.committedOps                     33282706                       # Number of Ops (including micro ops) Simulated
system.cpu1.cpi                              6.012870                       # CPI: Cycles Per Instruction
system.cpu1.cpi_total                        6.012870                       # CPI: Total CPI of All Threads
system.cpu1.decode.BlockedCycles            173343922                       # Number of cycles decode is blocked
system.cpu1.decode.BranchMispred               338100                       # Number of times decode detected a branch misprediction
system.cpu1.decode.BranchResolved             4323422                       # Number of times decode resolved a branch
system.cpu1.decode.DecodedInsts              39689740                       # Number of instructions handled by decode
system.cpu1.decode.IdleCycles                 5134204                       # Number of cycles decode is idle
system.cpu1.decode.RunCycles                 12553184                       # Number of cycles decode is running
system.cpu1.decode.SquashCycles                484616                       # Number of cycles decode is squashing
system.cpu1.decode.SquashedInsts               593902                       # Number of squashed instructions handled by decode
system.cpu1.decode.UnblockCycles              2317272                       # Number of cycles decode is unblocking
system.cpu1.dtb.accesses                            0                       # DTB accesses
system.cpu1.dtb.hits                                0                       # DTB hits
system.cpu1.dtb.misses                              0                       # DTB misses
system.cpu1.dtb.read_accesses                       0                       # DTB read accesses
system.cpu1.dtb.read_hits                           0                       # DTB read hits
system.cpu1.dtb.read_misses                         0                       # DTB read misses
system.cpu1.dtb.write_accesses                      0                       # DTB write accesses
system.cpu1.dtb.write_hits                          0                       # DTB write hits
system.cpu1.dtb.write_misses                        0                       # DTB write misses
system.cpu1.fetch.Branches                    8659817                       # Number of branches that fetch encountered
system.cpu1.fetch.CacheLines                  5129930                       # Number of cache lines fetched
system.cpu1.fetch.Cycles                    187443857                       # Number of cycles fetch has run and was not squashing or blocked
system.cpu1.fetch.IcacheSquashes                50723                       # Number of outstanding Icache misses that were squashed
system.cpu1.fetch.Insts                      40485820                       # Number of instructions fetch has processed
system.cpu1.fetch.MiscStallCycles                   1                       # Number of cycles fetch has spent waiting on interrupts, or bad addresses, or out of MSHRs
system.cpu1.fetch.SquashCycles                1638538                       # Number of cycles fetch has spent squashing
system.cpu1.fetch.branchRate                 0.044638                       # Number of branch fetches per cycle
system.cpu1.fetch.icacheStallCycles           5570071                       # Number of cycles fetch is stalled on an Icache miss
system.cpu1.fetch.predictedBranches           4686438                       # Number of branches that fetch has predicted taken
system.cpu1.fetch.rate                       0.208687                       # Number of inst fetches per cycle
system.cpu1.fetch.rateDist::samples         193833198                       # Number of instructions fetched each cycle (Total)
system.cpu1.fetch.rateDist::mean             0.214126                       # Number of instructions fetched each cycle (Total)
system.cpu1.fetch.rateDist::stdev            0.645739                       # Number of instructions fetched each cycle (Total)
system.cpu1.fetch.rateDist::underflows              0      0.00%      0.00% # Number of instructions fetched each cycle (Total)
system.cpu1.fetch.rateDist::0               168785760     87.08%     87.08% # Number of instructions fetched each cycle (Total)
system.cpu1.fetch.rateDist::1                14511444      7.49%     94.56% # Number of instructions fetched each cycle (Total)
system.cpu1.fetch.rateDist::2                 6188535      3.19%     97.76% # Number of instructions fetched each cycle (Total)
system.cpu1.fetch.rateDist::3                 2920197      1.51%     99.26% # Number of instructions fetched each cycle (Total)
system.cpu1.fetch.rateDist::4                 1284494      0.66%     99.93% # Number of instructions fetched each cycle (Total)
system.cpu1.fetch.rateDist::5                  139472      0.07%    100.00% # Number of instructions fetched each cycle (Total)
system.cpu1.fetch.rateDist::6                    3021      0.00%    100.00% # Number of instructions fetched each cycle (Total)
system.cpu1.fetch.rateDist::7                      63      0.00%    100.00% # Number of instructions fetched each cycle (Total)
system.cpu1.fetch.rateDist::8                     212      0.00%    100.00% # Number of instructions fetched each cycle (Total)
system.cpu1.fetch.rateDist::overflows               0      0.00%    100.00% # Number of instructions fetched each cycle (Total)
system.cpu1.fetch.rateDist::min_value               0                       # Number of instructions fetched each cycle (Total)
system.cpu1.fetch.rateDist::max_value               8                       # Number of instructions fetched each cycle (Total)
system.cpu1.fetch.rateDist::total           193833198                       # Number of instructions fetched each cycle (Total)
system.cpu1.fp_regfile_reads                       12                       # number of floating regfile reads
system.cpu1.idleCycles                         169656                       # Total number of cycles that the CPU has spent unscheduled due to idling
system.cpu1.iew.branchMispredicts              513927                       # Number of branch mispredicts detected at execute
system.cpu1.iew.exec_branches                 7661371                       # Number of branches executed
system.cpu1.iew.exec_nop                            0                       # number of nop insts executed
system.cpu1.iew.exec_rate                    0.186725                       # Inst execution rate
system.cpu1.iew.exec_refs                    12997951                       # number of memory reference insts executed
system.cpu1.iew.exec_stores                   2946637                       # Number of stores executed
system.cpu1.iew.exec_swp                            0                       # number of swp insts executed
system.cpu1.iew.iewBlockCycles              150805604                       # Number of cycles IEW is blocking
system.cpu1.iew.iewDispLoadInsts             10275370                       # Number of dispatched load instructions
system.cpu1.iew.iewDispNonSpecInsts           1018607                       # Number of dispatched non-speculative instructions
system.cpu1.iew.iewDispSquashedInsts           317721                       # Number of squashed instructions skipped by dispatch
system.cpu1.iew.iewDispStoreInsts             2980045                       # Number of dispatched store instructions
system.cpu1.iew.iewDispatchedInsts           37790898                       # Number of instructions dispatched to IQ
system.cpu1.iew.iewExecLoadInsts             10051314                       # Number of load instructions executed
system.cpu1.iew.iewExecSquashedInsts           586043                       # Number of squashed instructions skipped in execute
system.cpu1.iew.iewExecutedInsts             36225239                       # Number of executed instructions
system.cpu1.iew.iewIQFullEvents                756821                       # Number of times the IQ has become full, causing a stall
system.cpu1.iew.iewIdleCycles                       0                       # Number of cycles IEW is idle
system.cpu1.iew.iewLSQFullEvents              1515941                       # Number of times the LSQ has become full, causing a stall
system.cpu1.iew.iewSquashCycles                484616                       # Number of cycles IEW is squashing
system.cpu1.iew.iewUnblockCycles              3488995                       # Number of cycles IEW is unblocking
system.cpu1.iew.lsq.thread0.blockedLoads            0                       # Number of blocked loads due to partial load-store forwarding
system.cpu1.iew.lsq.thread0.cacheBlocked        21620                       # Number of times an access to memory failed due to the cache being blocked
system.cpu1.iew.lsq.thread0.forwLoads          145834                       # Number of loads that had data forwarded from stores
system.cpu1.iew.lsq.thread0.ignoredResponses         4509                       # Number of memory responses ignored because the instruction is squashed
system.cpu1.iew.lsq.thread0.invAddrLoads            0                       # Number of loads ignored due to an invalid address
system.cpu1.iew.lsq.thread0.invAddrSwpfs            0                       # Number of software prefetches ignored due to an invalid address
system.cpu1.iew.lsq.thread0.memOrderViolation          156                       # Number of memory ordering violations
system.cpu1.iew.lsq.thread0.rescheduledLoads          368                       # Number of loads that were rescheduled
system.cpu1.iew.lsq.thread0.squashedLoads      1026623                       # Number of loads squashed
system.cpu1.iew.lsq.thread0.squashedStores        65795                       # Number of stores squashed
system.cpu1.iew.memOrderViolationEvents           156                       # Number of memory order violations
system.cpu1.iew.predictedNotTakenIncorrect        90646                       # Number of branches that were predicted not taken incorrectly
system.cpu1.iew.predictedTakenIncorrect        423281                       # Number of branches that were predicted taken incorrectly
system.cpu1.iew.wb_consumers                 21155358                       # num instructions consuming a value
system.cpu1.iew.wb_count                     35903523                       # cumulative count of insts written-back
system.cpu1.iew.wb_fanout                    0.874771                       # average fanout of values written-back
system.cpu1.iew.wb_producers                 18506084                       # num instructions producing a value
system.cpu1.iew.wb_rate                      0.185067                       # insts written-back per cycle
system.cpu1.iew.wb_sent                      35910454                       # cumulative count of insts sent to commit
system.cpu1.int_regfile_reads                44538229                       # number of integer regfile reads
system.cpu1.int_regfile_writes               24473205                       # number of integer regfile writes
system.cpu1.ipc                              0.166310                       # IPC: Instructions Per Cycle
system.cpu1.ipc_total                        0.166310                       # IPC: Total IPC of All Threads
system.cpu1.iq.FU_type_0::No_OpClass          2036084      5.53%      5.53% # Type of FU issued
system.cpu1.iq.FU_type_0::IntAlu             21702775     58.96%     64.49% # Type of FU issued
system.cpu1.iq.FU_type_0::IntMult                  44      0.00%     64.49% # Type of FU issued
system.cpu1.iq.FU_type_0::IntDiv                   84      0.00%     64.49% # Type of FU issued
system.cpu1.iq.FU_type_0::FloatAdd                  0      0.00%     64.49% # Type of FU issued
system.cpu1.iq.FU_type_0::FloatCmp                  0      0.00%     64.49% # Type of FU issued
system.cpu1.iq.FU_type_0::FloatCvt                  0      0.00%     64.49% # Type of FU issued
system.cpu1.iq.FU_type_0::FloatMult                 0      0.00%     64.49% # Type of FU issued
system.cpu1.iq.FU_type_0::FloatMultAcc              0      0.00%     64.49% # Type of FU issued
system.cpu1.iq.FU_type_0::FloatDiv                  0      0.00%     64.49% # Type of FU issued
system.cpu1.iq.FU_type_0::FloatMisc                 0      0.00%     64.49% # Type of FU issued
system.cpu1.iq.FU_type_0::FloatSqrt                 0      0.00%     64.49% # Type of FU issued
system.cpu1.iq.FU_type_0::SimdAdd                   0      0.00%     64.49% # Type of FU issued
system.cpu1.iq.FU_type_0::SimdAddAcc                0      0.00%     64.49% # Type of FU issued
system.cpu1.iq.FU_type_0::SimdAlu                   0      0.00%     64.49% # Type of FU issued
system.cpu1.iq.FU_type_0::SimdCmp                   0      0.00%     64.49% # Type of FU issued
system.cpu1.iq.FU_type_0::SimdCvt                   0      0.00%     64.49% # Type of FU issued
system.cpu1.iq.FU_type_0::SimdMisc                  0      0.00%     64.49% # Type of FU issued
system.cpu1.iq.FU_type_0::SimdMult                  0      0.00%     64.49% # Type of FU issued
system.cpu1.iq.FU_type_0::SimdMultAcc               0      0.00%     64.49% # Type of FU issued
system.cpu1.iq.FU_type_0::SimdShift                 0      0.00%     64.49% # Type of FU issued
system.cpu1.iq.FU_type_0::SimdShiftAcc              0      0.00%     64.49% # Type of FU issued
system.cpu1.iq.FU_type_0::SimdDiv                   0      0.00%     64.49% # Type of FU issued
system.cpu1.iq.FU_type_0::SimdSqrt                  0      0.00%     64.49% # Type of FU issued
system.cpu1.iq.FU_type_0::SimdFloatAdd              0      0.00%     64.49% # Type of FU issued
system.cpu1.iq.FU_type_0::SimdFloatAlu              0      0.00%     64.49% # Type of FU issued
system.cpu1.iq.FU_type_0::SimdFloatCmp              0      0.00%     64.49% # Type of FU issued
system.cpu1.iq.FU_type_0::SimdFloatCvt              0      0.00%     64.49% # Type of FU issued
system.cpu1.iq.FU_type_0::SimdFloatDiv              0      0.00%     64.49% # Type of FU issued
system.cpu1.iq.FU_type_0::SimdFloatMisc             0      0.00%     64.49% # Type of FU issued
system.cpu1.iq.FU_type_0::SimdFloatMult             0      0.00%     64.49% # Type of FU issued
system.cpu1.iq.FU_type_0::SimdFloatMultAcc            0      0.00%     64.49% # Type of FU issued
system.cpu1.iq.FU_type_0::SimdFloatSqrt             0      0.00%     64.49% # Type of FU issued
system.cpu1.iq.FU_type_0::SimdReduceAdd             0      0.00%     64.49% # Type of FU issued
system.cpu1.iq.FU_type_0::SimdReduceAlu             0      0.00%     64.49% # Type of FU issued
system.cpu1.iq.FU_type_0::SimdReduceCmp             0      0.00%     64.49% # Type of FU issued
system.cpu1.iq.FU_type_0::SimdFloatReduceAdd            0      0.00%     64.49% # Type of FU issued
system.cpu1.iq.FU_type_0::SimdFloatReduceCmp            0      0.00%     64.49% # Type of FU issued
system.cpu1.iq.FU_type_0::SimdAes                   0      0.00%     64.49% # Type of FU issued
system.cpu1.iq.FU_type_0::SimdAesMix                0      0.00%     64.49% # Type of FU issued
system.cpu1.iq.FU_type_0::SimdSha1Hash              0      0.00%     64.49% # Type of FU issued
system.cpu1.iq.FU_type_0::SimdSha1Hash2             0      0.00%     64.49% # Type of FU issued
system.cpu1.iq.FU_type_0::SimdSha256Hash            0      0.00%     64.49% # Type of FU issued
system.cpu1.iq.FU_type_0::SimdSha256Hash2            0      0.00%     64.49% # Type of FU issued
system.cpu1.iq.FU_type_0::SimdShaSigma2             0      0.00%     64.49% # Type of FU issued
system.cpu1.iq.FU_type_0::SimdShaSigma3             0      0.00%     64.49% # Type of FU issued
system.cpu1.iq.FU_type_0::SimdPredAlu               0      0.00%     64.49% # Type of FU issued
system.cpu1.iq.FU_type_0::MemRead            11135834     30.25%     94.74% # Type of FU issued
system.cpu1.iq.FU_type_0::MemWrite            1936449      5.26%    100.00% # Type of FU issued
system.cpu1.iq.FU_type_0::FloatMemRead              0      0.00%    100.00% # Type of FU issued
system.cpu1.iq.FU_type_0::FloatMemWrite            12      0.00%    100.00% # Type of FU issued
system.cpu1.iq.FU_type_0::IprAccess                 0      0.00%    100.00% # Type of FU issued
system.cpu1.iq.FU_type_0::InstPrefetch              0      0.00%    100.00% # Type of FU issued
system.cpu1.iq.FU_type_0::total              36811282                       # Type of FU issued
system.cpu1.iq.fp_alu_accesses                     14                       # Number of floating point alu accesses
system.cpu1.iq.fp_inst_queue_reads                 26                       # Number of floating instruction queue reads
system.cpu1.iq.fp_inst_queue_wakeup_accesses           12                       # Number of floating instruction queue wakeup accesses
system.cpu1.iq.fp_inst_queue_writes                12                       # Number of floating instruction queue writes
system.cpu1.iq.fu_busy_cnt                    1136742                       # FU busy when requested
system.cpu1.iq.fu_busy_rate                  0.030880                       # FU busy rate (busy events/executed inst)
system.cpu1.iq.fu_full::No_OpClass                  0      0.00%      0.00% # attempts to use FU when none available
system.cpu1.iq.fu_full::IntAlu                 212264     18.67%     18.67% # attempts to use FU when none available
system.cpu1.iq.fu_full::IntMult                     0      0.00%     18.67% # attempts to use FU when none available
system.cpu1.iq.fu_full::IntDiv                      0      0.00%     18.67% # attempts to use FU when none available
system.cpu1.iq.fu_full::FloatAdd                    0      0.00%     18.67% # attempts to use FU when none available
system.cpu1.iq.fu_full::FloatCmp                    0      0.00%     18.67% # attempts to use FU when none available
system.cpu1.iq.fu_full::FloatCvt                    0      0.00%     18.67% # attempts to use FU when none available
system.cpu1.iq.fu_full::FloatMult                   0      0.00%     18.67% # attempts to use FU when none available
system.cpu1.iq.fu_full::FloatMultAcc                0      0.00%     18.67% # attempts to use FU when none available
system.cpu1.iq.fu_full::FloatDiv                    0      0.00%     18.67% # attempts to use FU when none available
system.cpu1.iq.fu_full::FloatMisc                   0      0.00%     18.67% # attempts to use FU when none available
system.cpu1.iq.fu_full::FloatSqrt                   0      0.00%     18.67% # attempts to use FU when none available
system.cpu1.iq.fu_full::SimdAdd                     0      0.00%     18.67% # attempts to use FU when none available
system.cpu1.iq.fu_full::SimdAddAcc                  0      0.00%     18.67% # attempts to use FU when none available
system.cpu1.iq.fu_full::SimdAlu                     0      0.00%     18.67% # attempts to use FU when none available
system.cpu1.iq.fu_full::SimdCmp                     0      0.00%     18.67% # attempts to use FU when none available
system.cpu1.iq.fu_full::SimdCvt                     0      0.00%     18.67% # attempts to use FU when none available
system.cpu1.iq.fu_full::SimdMisc                    0      0.00%     18.67% # attempts to use FU when none available
system.cpu1.iq.fu_full::SimdMult                    0      0.00%     18.67% # attempts to use FU when none available
system.cpu1.iq.fu_full::SimdMultAcc                 0      0.00%     18.67% # attempts to use FU when none available
system.cpu1.iq.fu_full::SimdShift                   0      0.00%     18.67% # attempts to use FU when none available
system.cpu1.iq.fu_full::SimdShiftAcc                0      0.00%     18.67% # attempts to use FU when none available
system.cpu1.iq.fu_full::SimdDiv                     0      0.00%     18.67% # attempts to use FU when none available
system.cpu1.iq.fu_full::SimdSqrt                    0      0.00%     18.67% # attempts to use FU when none available
system.cpu1.iq.fu_full::SimdFloatAdd                0      0.00%     18.67% # attempts to use FU when none available
system.cpu1.iq.fu_full::SimdFloatAlu                0      0.00%     18.67% # attempts to use FU when none available
system.cpu1.iq.fu_full::SimdFloatCmp                0      0.00%     18.67% # attempts to use FU when none available
system.cpu1.iq.fu_full::SimdFloatCvt                0      0.00%     18.67% # attempts to use FU when none available
system.cpu1.iq.fu_full::SimdFloatDiv                0      0.00%     18.67% # attempts to use FU when none available
system.cpu1.iq.fu_full::SimdFloatMisc               0      0.00%     18.67% # attempts to use FU when none available
system.cpu1.iq.fu_full::SimdFloatMult               0      0.00%     18.67% # attempts to use FU when none available
system.cpu1.iq.fu_full::SimdFloatMultAcc            0      0.00%     18.67% # attempts to use FU when none available
system.cpu1.iq.fu_full::SimdFloatSqrt               0      0.00%     18.67% # attempts to use FU when none available
system.cpu1.iq.fu_full::SimdReduceAdd               0      0.00%     18.67% # attempts to use FU when none available
system.cpu1.iq.fu_full::SimdReduceAlu               0      0.00%     18.67% # attempts to use FU when none available
system.cpu1.iq.fu_full::SimdReduceCmp               0      0.00%     18.67% # attempts to use FU when none available
system.cpu1.iq.fu_full::SimdFloatReduceAdd            0      0.00%     18.67% # attempts to use FU when none available
system.cpu1.iq.fu_full::SimdFloatReduceCmp            0      0.00%     18.67% # attempts to use FU when none available
system.cpu1.iq.fu_full::SimdAes                     0      0.00%     18.67% # attempts to use FU when none available
system.cpu1.iq.fu_full::SimdAesMix                  0      0.00%     18.67% # attempts to use FU when none available
system.cpu1.iq.fu_full::SimdSha1Hash                0      0.00%     18.67% # attempts to use FU when none available
system.cpu1.iq.fu_full::SimdSha1Hash2               0      0.00%     18.67% # attempts to use FU when none available
system.cpu1.iq.fu_full::SimdSha256Hash              0      0.00%     18.67% # attempts to use FU when none available
system.cpu1.iq.fu_full::SimdSha256Hash2             0      0.00%     18.67% # attempts to use FU when none available
system.cpu1.iq.fu_full::SimdShaSigma2               0      0.00%     18.67% # attempts to use FU when none available
system.cpu1.iq.fu_full::SimdShaSigma3               0      0.00%     18.67% # attempts to use FU when none available
system.cpu1.iq.fu_full::SimdPredAlu                 0      0.00%     18.67% # attempts to use FU when none available
system.cpu1.iq.fu_full::MemRead                815980     71.78%     90.46% # attempts to use FU when none available
system.cpu1.iq.fu_full::MemWrite               108496      9.54%    100.00% # attempts to use FU when none available
[...]
system.cpu1.dcache.ReadReq_avg_miss_latency::total 76600.661235                       # average ReadReq miss latency
system.cpu1.dcache.ReadReq_mshr_hits::.cpu1.data      2138155                       # number of ReadReq MSHR hits
system.cpu1.dcache.ReadReq_mshr_hits::total      2138155                       # number of ReadReq MSHR hits
system.cpu1.dcache.ReadReq_mshr_misses::.cpu1.data      1115908                       # number of ReadReq MSHR misses
system.cpu1.dcache.ReadReq_mshr_misses::total      1115908                       # number of ReadReq MSHR misses
system.cpu1.dcache.ReadReq_mshr_miss_latency::.cpu1.data 101835214500                       # number of ReadReq MSHR miss cycles
system.cpu1.dcache.ReadReq_mshr_miss_latency::total 101835214500                       # number of ReadReq MSHR miss cycles
system.cpu1.dcache.ReadReq_mshr_miss_rate::.cpu1.data     0.074037                       # mshr miss rate for ReadReq accesses
system.cpu1.dcache.ReadReq_mshr_miss_rate::total     0.074037                       # mshr miss rate for ReadReq accesses
system.cpu1.dcache.ReadReq_avg_mshr_miss_latency::.cpu1.data 91257.715242                       # average ReadReq mshr miss latency
system.cpu1.dcache.ReadReq_avg_mshr_miss_latency::total 91257.715242                       # average ReadReq mshr miss latency
system.cpu1.dcache.WriteReq_hits::.cpu1.data       877045                       # number of WriteReq hits
system.cpu1.dcache.WriteReq_hits::total        877045                       # number of WriteReq hits
system.cpu1.dcache.WriteReq_misses::.cpu1.data       576154                       # number of WriteReq misses
system.cpu1.dcache.WriteReq_misses::total       576154                       # number of WriteReq misses
system.cpu1.dcache.WriteReq_miss_latency::.cpu1.data  44452672983                       # number of WriteReq miss cycles
system.cpu1.dcache.WriteReq_miss_latency::total  44452672983                       # number of WriteReq miss cycles
system.cpu1.dcache.WriteReq_accesses::.cpu1.data      1453199                       # number of WriteReq accesses(hits+misses)
system.cpu1.dcache.WriteReq_accesses::total      1453199                       # number of WriteReq accesses(hits+misses)
system.cpu1.dcache.WriteReq_miss_rate::.cpu1.data     0.396473                       # miss rate for WriteReq accesses
system.cpu1.dcache.WriteReq_miss_rate::total     0.396473                       # miss rate for WriteReq accesses
system.cpu1.dcache.WriteReq_avg_miss_latency::.cpu1.data 77154.151465                       # average WriteReq miss latency
system.cpu1.dcache.WriteReq_avg_miss_latency::total 77154.151465                       # average WriteReq miss latency
system.cpu1.dcache.WriteReq_mshr_hits::.cpu1.data       536297                       # number of WriteReq MSHR hits
system.cpu1.dcache.WriteReq_mshr_hits::total       536297                       # number of WriteReq MSHR hits
system.cpu1.dcache.WriteReq_mshr_misses::.cpu1.data        39857                       # number of WriteReq MSHR misses
system.cpu1.dcache.WriteReq_mshr_misses::total        39857                       # number of WriteReq MSHR misses
system.cpu1.dcache.WriteReq_mshr_miss_latency::.cpu1.data   3871648488                       # number of WriteReq MSHR miss cycles
system.cpu1.dcache.WriteReq_mshr_miss_latency::total   3871648488                       # number of WriteReq MSHR miss cycles
system.cpu1.dcache.WriteReq_mshr_miss_rate::.cpu1.data     0.027427                       # mshr miss rate for WriteReq accesses
system.cpu1.dcache.WriteReq_mshr_miss_rate::total     0.027427                       # mshr miss rate for WriteReq accesses
system.cpu1.dcache.WriteReq_avg_mshr_miss_latency::.cpu1.data 97138.482274                       # average WriteReq mshr miss latency
system.cpu1.dcache.WriteReq_avg_mshr_miss_latency::total 97138.482274                       # average WriteReq mshr miss latency
system.cpu1.dcache.LoadLockedReq_hits::.cpu1.data          662                       # number of LoadLockedReq hits
system.cpu1.dcache.LoadLockedReq_hits::total          662                       # number of LoadLockedReq hits
system.cpu1.dcache.LoadLockedReq_misses::.cpu1.data          169                       # number of LoadLockedReq misses
system.cpu1.dcache.LoadLockedReq_misses::total          169                       # number of LoadLockedReq misses
system.cpu1.dcache.LoadLockedReq_miss_latency::.cpu1.data     12537500                       # number of LoadLockedReq miss cycles
system.cpu1.dcache.LoadLockedReq_miss_latency::total     12537500                       # number of LoadLockedReq miss cycles
system.cpu1.dcache.LoadLockedReq_accesses::.cpu1.data          831                       # number of LoadLockedReq accesses(hits+misses)
system.cpu1.dcache.LoadLockedReq_accesses::total          831                       # number of LoadLockedReq accesses(hits+misses)
system.cpu1.dcache.LoadLockedReq_miss_rate::.cpu1.data     0.203369                       # miss rate for LoadLockedReq accesses
system.cpu1.dcache.LoadLockedReq_miss_rate::total     0.203369                       # miss rate for LoadLockedReq accesses
system.cpu1.dcache.LoadLockedReq_avg_miss_latency::.cpu1.data 74186.390533                       # average LoadLockedReq miss latency
system.cpu1.dcache.LoadLockedReq_avg_miss_latency::total 74186.390533                       # average LoadLockedReq miss latency
system.cpu1.dcache.LoadLockedReq_mshr_hits::.cpu1.data           79                       # number of LoadLockedReq MSHR hits
system.cpu1.dcache.LoadLockedReq_mshr_hits::total           79                       # number of LoadLockedReq MSHR hits
system.cpu1.dcache.LoadLockedReq_mshr_misses::.cpu1.data           90                       # number of LoadLockedReq MSHR misses
system.cpu1.dcache.LoadLockedReq_mshr_misses::total           90                       # number of LoadLockedReq MSHR misses
system.cpu1.dcache.LoadLockedReq_mshr_miss_latency::.cpu1.data      6859500                       # number of LoadLockedReq MSHR miss cycles
system.cpu1.dcache.LoadLockedReq_mshr_miss_latency::total      6859500                       # number of LoadLockedReq MSHR miss cycles
system.cpu1.dcache.LoadLockedReq_mshr_miss_rate::.cpu1.data     0.108303                       # mshr miss rate for LoadLockedReq accesses
system.cpu1.dcache.LoadLockedReq_mshr_miss_rate::total     0.108303                       # mshr miss rate for LoadLockedReq accesses
system.cpu1.dcache.LoadLockedReq_avg_mshr_miss_latency::.cpu1.data 76216.666667                       # average LoadLockedReq mshr miss latency
system.cpu1.dcache.LoadLockedReq_avg_mshr_miss_latency::total 76216.666667                       # average LoadLockedReq mshr miss latency
system.cpu1.dcache.StoreCondReq_hits::.cpu1.data          583                       # number of StoreCondReq hits
system.cpu1.dcache.StoreCondReq_hits::total          583                       # number of StoreCondReq hits
system.cpu1.dcache.StoreCondReq_misses::.cpu1.data          211                       # number of StoreCondReq misses
system.cpu1.dcache.StoreCondReq_misses::total          211                       # number of StoreCondReq misses
system.cpu1.dcache.StoreCondReq_miss_latency::.cpu1.data      1230000                       # number of StoreCondReq miss cycles
system.cpu1.dcache.StoreCondReq_miss_latency::total      1230000                       # number of StoreCondReq miss cycles
system.cpu1.dcache.StoreCondReq_accesses::.cpu1.data          794                       # number of StoreCondReq accesses(hits+misses)
system.cpu1.dcache.StoreCondReq_accesses::total          794                       # number of StoreCondReq accesses(hits+misses)
system.cpu1.dcache.StoreCondReq_miss_rate::.cpu1.data     0.265743                       # miss rate for StoreCondReq accesses
system.cpu1.dcache.StoreCondReq_miss_rate::total     0.265743                       # miss rate for StoreCondReq accesses
system.cpu1.dcache.StoreCondReq_avg_miss_latency::.cpu1.data  5829.383886                       # average StoreCondReq miss latency
system.cpu1.dcache.StoreCondReq_avg_miss_latency::total  5829.383886                       # average StoreCondReq miss latency
system.cpu1.dcache.StoreCondReq_mshr_misses::.cpu1.data          211                       # number of StoreCondReq MSHR misses
system.cpu1.dcache.StoreCondReq_mshr_misses::total          211                       # number of StoreCondReq MSHR misses
system.cpu1.dcache.StoreCondReq_mshr_miss_latency::.cpu1.data      1019000                       # number of StoreCondReq MSHR miss cycles
system.cpu1.dcache.StoreCondReq_mshr_miss_latency::total      1019000                       # number of StoreCondReq MSHR miss cycles
system.cpu1.dcache.StoreCondReq_mshr_miss_rate::.cpu1.data     0.265743                       # mshr miss rate for StoreCondReq accesses
system.cpu1.dcache.StoreCondReq_mshr_miss_rate::total     0.265743                       # mshr miss rate for StoreCondReq accesses
system.cpu1.dcache.StoreCondReq_avg_mshr_miss_latency::.cpu1.data  4829.383886                       # average StoreCondReq mshr miss latency
system.cpu1.dcache.StoreCondReq_avg_mshr_miss_latency::total  4829.383886                       # average StoreCondReq mshr miss latency
system.cpu1.dcache.SwapReq_hits::.cpu1.data          291                       # number of SwapReq hits
system.cpu1.dcache.SwapReq_hits::total            291                       # number of SwapReq hits
system.cpu1.dcache.SwapReq_misses::.cpu1.data          177                       # number of SwapReq misses
system.cpu1.dcache.SwapReq_misses::total          177                       # number of SwapReq misses
system.cpu1.dcache.SwapReq_miss_latency::.cpu1.data       915500                       # number of SwapReq miss cycles
system.cpu1.dcache.SwapReq_miss_latency::total       915500                       # number of SwapReq miss cycles
system.cpu1.dcache.SwapReq_accesses::.cpu1.data          468                       # number of SwapReq accesses(hits+misses)
system.cpu1.dcache.SwapReq_accesses::total          468                       # number of SwapReq accesses(hits+misses)
system.cpu1.dcache.SwapReq_miss_rate::.cpu1.data     0.378205                       # miss rate for SwapReq accesses
system.cpu1.dcache.SwapReq_miss_rate::total     0.378205                       # miss rate for SwapReq accesses
system.cpu1.dcache.SwapReq_avg_miss_latency::.cpu1.data  5172.316384                       # average SwapReq miss latency
system.cpu1.dcache.SwapReq_avg_miss_latency::total  5172.316384                       # average SwapReq miss latency
system.cpu1.dcache.SwapReq_mshr_misses::.cpu1.data          177                       # number of SwapReq MSHR misses
system.cpu1.dcache.SwapReq_mshr_misses::total          177                       # number of SwapReq MSHR misses
system.cpu1.dcache.SwapReq_mshr_miss_latency::.cpu1.data       738500                       # number of SwapReq MSHR miss cycles
system.cpu1.dcache.SwapReq_mshr_miss_latency::total       738500                       # number of SwapReq MSHR miss cycles
system.cpu1.dcache.SwapReq_mshr_miss_rate::.cpu1.data     0.378205                       # mshr miss rate for SwapReq accesses
system.cpu1.dcache.SwapReq_mshr_miss_rate::total     0.378205                       # mshr miss rate for SwapReq accesses
system.cpu1.dcache.SwapReq_avg_mshr_miss_latency::.cpu1.data  4172.316384                       # average SwapReq mshr miss latency
system.cpu1.dcache.SwapReq_avg_mshr_miss_latency::total  4172.316384                       # average SwapReq mshr miss latency
system.cpu1.dcache.tags.pwrStateResidencyTicks::UNDEFINED 347316069000                       # Cumulative time (in ticks) in various power states
system.cpu1.dcache.tags.tagsinuse           31.085764                       # Cycle average of tags in use
system.cpu1.dcache.tags.total_refs           13857023                       # Total number of references to valid blocks.
system.cpu1.dcache.tags.sampled_refs          1155551                       # Sample count of references to valid blocks.
system.cpu1.dcache.tags.avg_refs            11.991702                       # Average number of references to valid blocks.
system.cpu1.dcache.tags.warmup_cycle                0                       # Cycle when the warmup percentage was hit.
system.cpu1.dcache.tags.occ_blocks::.cpu1.data    31.085764                       # Average occupied blocks per requestor
system.cpu1.dcache.tags.occ_percent::.cpu1.data     0.971430                       # Average percentage of cache occupancy
system.cpu1.dcache.tags.occ_percent::total     0.971430                       # Average percentage of cache occupancy
system.cpu1.dcache.tags.occ_task_id_blocks::1024           29                       # Occupied blocks per task id
system.cpu1.dcache.tags.age_task_id_blocks_1024::1           29                       # Occupied blocks per task id
system.cpu1.dcache.tags.occ_task_id_percent::1024     0.906250                       # Percentage of cache occupancy per task id
system.cpu1.dcache.tags.tag_accesses         34210608                       # Number of tag accesses
system.cpu1.dcache.tags.data_accesses        34210608                       # Number of data accesses
system.cpu_clk_domain.clock                       500                       # Clock period in ticks
system.tol2bus.pwrStateResidencyTicks::UNDEFINED 347316069000                       # Cumulative time (in ticks) in various power states
system.tol2bus.trans_dist::ReadResp          13755959                       # Transaction distribution
system.tol2bus.trans_dist::WritebackDirty      1125855                       # Transaction distribution
system.tol2bus.trans_dist::WritebackClean     13236582                       # Transaction distribution
system.tol2bus.trans_dist::CleanEvict        32247612                       # Transaction distribution
system.tol2bus.trans_dist::HardPFReq         22465884                       # Transaction distribution
system.tol2bus.trans_dist::HardPFResp               1                       # Transaction distribution
system.tol2bus.trans_dist::UpgradeReq            1781                       # Transaction distribution
system.tol2bus.trans_dist::SCUpgradeReq           448                       # Transaction distribution
system.tol2bus.trans_dist::UpgradeResp           2229                       # Transaction distribution
system.tol2bus.trans_dist::ReadExReq            84204                       # Transaction distribution
system.tol2bus.trans_dist::ReadExResp           84204                       # Transaction distribution
system.tol2bus.trans_dist::ReadCleanReq         18117                       # Transaction distribution
system.tol2bus.trans_dist::ReadSharedReq     13737843                       # Transaction distribution
system.tol2bus.trans_dist::InvalidateReq            1                       # Transaction distribution
system.tol2bus.trans_dist::InvalidateResp            1                       # Transaction distribution
system.tol2bus.pkt_count_system.cpu0.icache.mem_side::system.l2.cpu_side        46456                       # Packet count per connected master and slave (bytes)
system.tol2bus.pkt_count_system.cpu0.dcache.mem_side::system.l2.cpu_side     37999799                       # Packet count per connected master and slave (bytes)
system.tol2bus.pkt_count_system.cpu1.icache.mem_side::system.l2.cpu_side         7893                       # Packet count per connected master and slave (bytes)
system.tol2bus.pkt_count_system.cpu1.dcache.mem_side::system.l2.cpu_side      3463845                       # Packet count per connected master and slave (bytes)
system.tol2bus.pkt_count::total              41517993                       # Packet count per connected master and slave (bytes)
system.tol2bus.pkt_size_system.cpu0.icache.mem_side::system.l2.cpu_side      1982080                       # Cumulative packet size per connected master and slave (bytes)
system.tol2bus.pkt_size_system.cpu0.dcache.mem_side::system.l2.cpu_side   1621185984                       # Cumulative packet size per connected master and slave (bytes)
system.tol2bus.pkt_size_system.cpu1.icache.mem_side::system.l2.cpu_side       336768                       # Cumulative packet size per connected master and slave (bytes)
system.tol2bus.pkt_size_system.cpu1.dcache.mem_side::system.l2.cpu_side    147674048                       # Cumulative packet size per connected master and slave (bytes)
system.tol2bus.pkt_size::total             1771178880                       # Cumulative packet size per connected master and slave (bytes)
system.tol2bus.snoops                        55242729                       # Total snoops (count)
system.tol2bus.snoopTraffic                  33787648                       # Total snoop traffic (bytes)
system.tol2bus.snoop_fanout::samples         69089621                       # Request fanout histogram
system.tol2bus.snoop_fanout::mean            0.143117                       # Request fanout histogram
system.tol2bus.snoop_fanout::stdev           0.356726                       # Request fanout histogram
system.tol2bus.snoop_fanout::underflows             0      0.00%      0.00% # Request fanout histogram
system.tol2bus.snoop_fanout::0               59361279     85.92%     85.92% # Request fanout histogram
system.tol2bus.snoop_fanout::1                9568785     13.85%     99.77% # Request fanout histogram
system.tol2bus.snoop_fanout::2                 159557      0.23%    100.00% # Request fanout histogram
system.tol2bus.snoop_fanout::3                      0      0.00%    100.00% # Request fanout histogram
system.tol2bus.snoop_fanout::4                      0      0.00%    100.00% # Request fanout histogram
system.tol2bus.snoop_fanout::5                      0      0.00%    100.00% # Request fanout histogram
system.tol2bus.snoop_fanout::6                      0      0.00%    100.00% # Request fanout histogram
system.tol2bus.snoop_fanout::7                      0      0.00%    100.00% # Request fanout histogram
system.tol2bus.snoop_fanout::8                      0      0.00%    100.00% # Request fanout histogram
system.tol2bus.snoop_fanout::overflows              0      0.00%    100.00% # Request fanout histogram
system.tol2bus.snoop_fanout::min_value              0                       # Request fanout histogram
system.tol2bus.snoop_fanout::max_value              2                       # Request fanout histogram
system.tol2bus.snoop_fanout::total           69089621                       # Request fanout histogram
system.tol2bus.reqLayer0.occupancy        27697607941                       # Layer occupancy (ticks)
system.tol2bus.reqLayer0.utilization              8.0                       # Layer utilization (%)
system.tol2bus.respLayer1.occupancy       19002559456                       # Layer occupancy (ticks)
system.tol2bus.respLayer1.utilization             5.5                       # Layer utilization (%)
system.tol2bus.respLayer0.occupancy          23244965                       # Layer occupancy (ticks)
system.tol2bus.respLayer0.utilization             0.0                       # Layer utilization (%)
system.tol2bus.respLayer3.occupancy        1735642001                       # Layer occupancy (ticks)
system.tol2bus.respLayer3.utilization             0.5                       # Layer utilization (%)
system.tol2bus.respLayer2.occupancy           3956480                       # Layer occupancy (ticks)
system.tol2bus.respLayer2.utilization             0.0                       # Layer utilization (%)
system.tol2bus.snoopLayer0.occupancy             1504                       # Layer occupancy (ticks)
system.tol2bus.snoopLayer0.utilization            0.0                       # Layer utilization (%)

---------- End Simulation Statistics   ----------
