
---------- Begin Simulation Statistics ----------
final_tick                               2153493091000                       # Number of ticks from beginning of simulation (restored from checkpoints and never reset)
host_inst_rate                                  59702                       # Simulator instruction rate (inst/s)
host_mem_usage                                 702556                       # Number of bytes of host memory used
host_op_rate                                    59895                       # Simulator op (including micro ops) rate (op/s)
host_seconds                                 39448.32                       # Real time elapsed on the host
host_tick_rate                               54590238                       # Simulator tick rate (ticks/s)
sim_freq                                 1000000000000                       # Frequency of simulated ticks
sim_insts                                  2355162605                       # Number of instructions simulated
sim_ops                                    2362771518                       # Number of ops (including micro ops) simulated
sim_seconds                                  2.153493                       # Number of seconds simulated
sim_ticks                                2153493091000                       # Number of ticks simulated
system.cpu0.branchPred.BTBCorrect                   0                       # Number of correct BTB predictions (this stat may not work properly.
system.cpu0.branchPred.BTBHitPct            86.711328                       # BTB Hit Percentage
system.cpu0.branchPred.BTBHits              303400119                       # Number of BTB hits
system.cpu0.branchPred.BTBLookups           349896752                       # Number of BTB lookups
system.cpu0.branchPred.RASInCorrect                 0                       # Number of incorrect RAS predictions.
system.cpu0.branchPred.condIncorrect         25667964                       # Number of conditional branches incorrect
system.cpu0.branchPred.condPredicted        478252985                       # Number of conditional branches predicted
system.cpu0.branchPred.indirectHits          38844895                       # Number of indirect target hits.
system.cpu0.branchPred.indirectLookups       39525657                       # Number of indirect predictor lookups.
system.cpu0.branchPred.indirectMisses          680762                       # Number of indirect misses.
system.cpu0.branchPred.lookups              605097419                       # Number of BP lookups
system.cpu0.branchPred.usedRAS                      0                       # Number of times the RAS was used to get a target.
system.cpu0.branchPredindirectMispredicted      3961599                       # Number of mispredicted indirect branches.
system.cpu0.commit.amos                       3801866                       # Number of atomic instructions committed
system.cpu0.commit.branchMispredicts         16727787                       # The number of times a branch was mispredicted
system.cpu0.commit.branches                 555109969                       # Number of branches committed
system.cpu0.commit.bw_lim_events             61748725                       # number cycles where commit BW limit reached
system.cpu0.commit.commitNonSpecStalls       11419505                       # The number of times commit has been forced to stall to communicate backwards
system.cpu0.commit.commitSquashedInsts      188013068                       # The number of squashed insts skipped by commit
system.cpu0.commit.committedInsts          2225091679                       # Number of instructions committed
system.cpu0.commit.committedOps            2228898837                       # Number of ops (including micro ops) committed
system.cpu0.commit.committed_per_cycle::samples   3978373089                       # Number of insts commited each cycle
system.cpu0.commit.committed_per_cycle::mean     0.560254                       # Number of insts commited each cycle
system.cpu0.commit.committed_per_cycle::stdev     1.312020                       # Number of insts commited each cycle
system.cpu0.commit.committed_per_cycle::underflows            0      0.00%      0.00% # Number of insts commited each cycle
system.cpu0.commit.committed_per_cycle::0   2872316973     72.20%     72.20% # Number of insts commited each cycle
system.cpu0.commit.committed_per_cycle::1    682861387     17.16%     89.36% # Number of insts commited each cycle
system.cpu0.commit.committed_per_cycle::2    146404513      3.68%     93.04% # Number of insts commited each cycle
system.cpu0.commit.committed_per_cycle::3    146643131      3.69%     96.73% # Number of insts commited each cycle
system.cpu0.commit.committed_per_cycle::4     41156140      1.03%     97.76% # Number of insts commited each cycle
system.cpu0.commit.committed_per_cycle::5     15848950      0.40%     98.16% # Number of insts commited each cycle
system.cpu0.commit.committed_per_cycle::6      4312969      0.11%     98.27% # Number of insts commited each cycle
system.cpu0.commit.committed_per_cycle::7      7080301      0.18%     98.45% # Number of insts commited each cycle
system.cpu0.commit.committed_per_cycle::8     61748725      1.55%    100.00% # Number of insts commited each cycle
system.cpu0.commit.committed_per_cycle::overflows            0      0.00%    100.00% # Number of insts commited each cycle
system.cpu0.commit.committed_per_cycle::min_value            0                       # Number of insts commited each cycle
system.cpu0.commit.committed_per_cycle::max_value            8                       # Number of insts commited each cycle
system.cpu0.commit.committed_per_cycle::total   3978373089                       # Number of insts commited each cycle
system.cpu0.commit.fp_insts                        46                       # Number of committed floating point instructions.
system.cpu0.commit.function_calls            44165839                       # Number of function calls committed.
system.cpu0.commit.int_insts               2151172362                       # Number of committed integer instructions.
system.cpu0.commit.loads                    691601129                       # Number of loads committed
system.cpu0.commit.membars                    7608890                       # Number of memory barriers committed
system.cpu0.commit.op_class_0::No_OpClass      7608896      0.34%      0.34% # Class of committed instruction
system.cpu0.commit.op_class_0::IntAlu      1238998535     55.59%     55.93% # Class of committed instruction
system.cpu0.commit.op_class_0::IntMult       18316825      0.82%     56.75% # Class of committed instruction
system.cpu0.commit.op_class_0::IntDiv         3801411      0.17%     56.92% # Class of committed instruction
system.cpu0.commit.op_class_0::FloatAdd             0      0.00%     56.92% # Class of committed instruction
system.cpu0.commit.op_class_0::FloatCmp             4      0.00%     56.92% # Class of committed instruction
system.cpu0.commit.op_class_0::FloatCvt            12      0.00%     56.92% # Class of committed instruction
system.cpu0.commit.op_class_0::FloatMult            0      0.00%     56.92% # Class of committed instruction
system.cpu0.commit.op_class_0::FloatMultAcc            0      0.00%     56.92% # Class of committed instruction
system.cpu0.commit.op_class_0::FloatDiv             2      0.00%     56.92% # Class of committed instruction
system.cpu0.commit.op_class_0::FloatMisc            4      0.00%     56.92% # Class of committed instruction
system.cpu0.commit.op_class_0::FloatSqrt            0      0.00%     56.92% # Class of committed instruction
system.cpu0.commit.op_class_0::SimdAdd              0      0.00%     56.92% # Class of committed instruction
system.cpu0.commit.op_class_0::SimdAddAcc            0      0.00%     56.92% # Class of committed instruction
system.cpu0.commit.op_class_0::SimdAlu              0      0.00%     56.92% # Class of committed instruction
system.cpu0.commit.op_class_0::SimdCmp              0      0.00%     56.92% # Class of committed instruction
system.cpu0.commit.op_class_0::SimdCvt              0      0.00%     56.92% # Class of committed instruction
system.cpu0.commit.op_class_0::SimdMisc             0      0.00%     56.92% # Class of committed instruction
system.cpu0.commit.op_class_0::SimdMult             0      0.00%     56.92% # Class of committed instruction
system.cpu0.commit.op_class_0::SimdMultAcc            0      0.00%     56.92% # Class of committed instruction
system.cpu0.commit.op_class_0::SimdShift            0      0.00%     56.92% # Class of committed instruction
system.cpu0.commit.op_class_0::SimdShiftAcc            0      0.00%     56.92% # Class of committed instruction
system.cpu0.commit.op_class_0::SimdDiv              0      0.00%     56.92% # Class of committed instruction
system.cpu0.commit.op_class_0::SimdSqrt             0      0.00%     56.92% # Class of committed instruction
system.cpu0.commit.op_class_0::SimdFloatAdd            0      0.00%     56.92% # Class of committed instruction
system.cpu0.commit.op_class_0::SimdFloatAlu            0      0.00%     56.92% # Class of committed instruction
system.cpu0.commit.op_class_0::SimdFloatCmp            0      0.00%     56.92% # Class of committed instruction
system.cpu0.commit.op_class_0::SimdFloatCvt            0      0.00%     56.92% # Class of committed instruction
system.cpu0.commit.op_class_0::SimdFloatDiv            0      0.00%     56.92% # Class of committed instruction
system.cpu0.commit.op_class_0::SimdFloatMisc            0      0.00%     56.92% # Class of committed instruction
system.cpu0.commit.op_class_0::SimdFloatMult            0      0.00%     56.92% # Class of committed instruction
system.cpu0.commit.op_class_0::SimdFloatMultAcc            0      0.00%     56.92% # Class of committed instruction
system.cpu0.commit.op_class_0::SimdFloatSqrt            0      0.00%     56.92% # Class of committed instruction
system.cpu0.commit.op_class_0::SimdReduceAdd            0      0.00%     56.92% # Class of committed instruction
system.cpu0.commit.op_class_0::SimdReduceAlu            0      0.00%     56.92% # Class of committed instruction
system.cpu0.commit.op_class_0::SimdReduceCmp            0      0.00%     56.92% # Class of committed instruction
system.cpu0.commit.op_class_0::SimdFloatReduceAdd            0      0.00%     56.92% # Class of committed instruction
system.cpu0.commit.op_class_0::SimdFloatReduceCmp            0      0.00%     56.92% # Class of committed instruction
system.cpu0.commit.op_class_0::SimdAes              0      0.00%     56.92% # Class of committed instruction
system.cpu0.commit.op_class_0::SimdAesMix            0      0.00%     56.92% # Class of committed instruction
system.cpu0.commit.op_class_0::SimdSha1Hash            0      0.00%     56.92% # Class of committed instruction
system.cpu0.commit.op_class_0::SimdSha1Hash2            0      0.00%     56.92% # Class of committed instruction
system.cpu0.commit.op_class_0::SimdSha256Hash            0      0.00%     56.92% # Class of committed instruction
system.cpu0.commit.op_class_0::SimdSha256Hash2            0      0.00%     56.92% # Class of committed instruction
system.cpu0.commit.op_class_0::SimdShaSigma2            0      0.00%     56.92% # Class of committed instruction
system.cpu0.commit.op_class_0::SimdShaSigma3            0      0.00%     56.92% # Class of committed instruction
system.cpu0.commit.op_class_0::SimdPredAlu            0      0.00%     56.92% # Class of committed instruction
system.cpu0.commit.op_class_0::MemRead      695402987     31.20%     88.12% # Class of committed instruction
system.cpu0.commit.op_class_0::MemWrite     264770137     11.88%    100.00% # Class of committed instruction
system.cpu0.commit.op_class_0::FloatMemRead            8      0.00%    100.00% # Class of committed instruction
system.cpu0.commit.op_class_0::FloatMemWrite           16      0.00%    100.00% # Class of committed instruction
system.cpu0.commit.op_class_0::IprAccess            0      0.00%    100.00% # Class of committed instruction
system.cpu0.commit.op_class_0::InstPrefetch            0      0.00%    100.00% # Class of committed instruction
system.cpu0.commit.op_class_0::total       2228898837                       # Class of committed instruction
system.cpu0.commit.refs                     960173148                       # Number of memory references committed
system.cpu0.commit.swp_count                        0                       # Number of s/w prefetches committed
system.cpu0.commit.vec_insts                        0                       # Number of committed Vector instructions.
system.cpu0.committedInsts                 2225091679                       # Number of Instructions Simulated
system.cpu0.committedOps                   2228898837                       # Number of Ops (including micro ops) Simulated
system.cpu0.cpi                              1.933649                       # CPI: Cycles Per Instruction
system.cpu0.cpi_total                        1.933649                       # CPI: Total CPI of All Threads
system.cpu0.decode.BlockedCycles            585620350                       # Number of cycles decode is blocked
system.cpu0.decode.BranchMispred              8959735                       # Number of times decode detected a branch misprediction
system.cpu0.decode.BranchResolved           300176871                       # Number of times decode resolved a branch
system.cpu0.decode.DecodedInsts            2465538483                       # Number of instructions handled by decode
system.cpu0.decode.IdleCycles              1698348423                       # Number of cycles decode is idle
system.cpu0.decode.RunCycles               1703043888                       # Number of cycles decode is running
system.cpu0.decode.SquashCycles              16749263                       # Number of cycles decode is squashing
system.cpu0.decode.SquashedInsts             13375274                       # Number of squashed instructions handled by decode
system.cpu0.decode.UnblockCycles              9601855                       # Number of cycles decode is unblocking
system.cpu0.dtb.accesses                            0                       # DTB accesses
system.cpu0.dtb.hits                                0                       # DTB hits
system.cpu0.dtb.misses                              0                       # DTB misses
system.cpu0.dtb.read_accesses                       0                       # DTB read accesses
system.cpu0.dtb.read_hits                           0                       # DTB read hits
system.cpu0.dtb.read_misses                         0                       # DTB read misses
system.cpu0.dtb.write_accesses                      0                       # DTB write accesses
system.cpu0.dtb.write_hits                          0                       # DTB write hits
system.cpu0.dtb.write_misses                        0                       # DTB write misses
system.cpu0.fetch.Branches                  605097419                       # Number of branches that fetch encountered
system.cpu0.fetch.CacheLines                436581419                       # Number of cache lines fetched
system.cpu0.fetch.Cycles                   2303642533                       # Number of cycles fetch has run and was not squashing or blocked
system.cpu0.fetch.IcacheSquashes              9958770                       # Number of outstanding Icache misses that were squashed
system.cpu0.fetch.IcacheWaitRetryStallCycles          261                       # Number of stall cycles due to full MSHR
system.cpu0.fetch.Insts                    2516181626                       # Number of instructions fetch has processed
system.cpu0.fetch.MiscStallCycles                 112                       # Number of cycles fetch has spent waiting on interrupts, or bad addresses, or out of MSHRs
system.cpu0.fetch.PendingTrapStallCycles          168                       # Number of stall cycles due to pending traps
system.cpu0.fetch.SquashCycles               51378932                       # Number of cycles fetch has spent squashing
system.cpu0.fetch.branchRate                 0.140637                       # Number of branch fetches per cycle
system.cpu0.fetch.icacheStallCycles        1684031239                       # Number of cycles fetch is stalled on an Icache miss
system.cpu0.fetch.predictedBranches         342245014                       # Number of branches that fetch has predicted taken
system.cpu0.fetch.rate                       0.584812                       # Number of inst fetches per cycle
system.cpu0.fetch.rateDist::samples        4013363779                       # Number of instructions fetched each cycle (Total)
system.cpu0.fetch.rateDist::mean             0.630150                       # Number of instructions fetched each cycle (Total)
system.cpu0.fetch.rateDist::stdev            0.911240                       # Number of instructions fetched each cycle (Total)
system.cpu0.fetch.rateDist::underflows              0      0.00%      0.00% # Number of instructions fetched each cycle (Total)
system.cpu0.fetch.rateDist::0              2235089225     55.69%     55.69% # Number of instructions fetched each cycle (Total)
system.cpu0.fetch.rateDist::1              1302090759     32.44%     88.14% # Number of instructions fetched each cycle (Total)
system.cpu0.fetch.rateDist::2               289456609      7.21%     95.35% # Number of instructions fetched each cycle (Total)
system.cpu0.fetch.rateDist::3               145710053      3.63%     98.98% # Number of instructions fetched each cycle (Total)
system.cpu0.fetch.rateDist::4                17585267      0.44%     99.42% # Number of instructions fetched each cycle (Total)
system.cpu0.fetch.rateDist::5                11472611      0.29%     99.70% # Number of instructions fetched each cycle (Total)
system.cpu0.fetch.rateDist::6                 4340778      0.11%     99.81% # Number of instructions fetched each cycle (Total)
system.cpu0.fetch.rateDist::7                 3809445      0.09%     99.91% # Number of instructions fetched each cycle (Total)
system.cpu0.fetch.rateDist::8                 3809032      0.09%    100.00% # Number of instructions fetched each cycle (Total)
system.cpu0.fetch.rateDist::overflows               0      0.00%    100.00% # Number of instructions fetched each cycle (Total)
system.cpu0.fetch.rateDist::min_value               0                       # Number of instructions fetched each cycle (Total)
system.cpu0.fetch.rateDist::max_value               8                       # Number of instructions fetched each cycle (Total)
system.cpu0.fetch.rateDist::total          4013363779                       # Number of instructions fetched each cycle (Total)
system.cpu0.fp_regfile_reads                       40                       # number of floating regfile reads
system.cpu0.fp_regfile_writes                      22                       # number of floating regfile writes
system.cpu0.idleCycles                      289182269                       # Total number of cycles that the CPU has spent unscheduled due to idling
system.cpu0.iew.branchMispredicts            16921605                       # Number of branch mispredicts detected at execute
system.cpu0.iew.exec_branches               573944637                       # Number of branches executed
system.cpu0.iew.exec_nop                            0                       # number of nop insts executed
system.cpu0.iew.exec_rate                    0.540909                       # Inst execution rate
system.cpu0.iew.exec_refs                  1008495872                       # number of memory reference insts executed
system.cpu0.iew.exec_stores                 274292054                       # Number of stores executed
system.cpu0.iew.exec_swp                            0                       # number of swp insts executed
system.cpu0.iew.iewBlockCycles              499099470                       # Number of cycles IEW is blocking
system.cpu0.iew.iewDispLoadInsts            758453117                       # Number of dispatched load instructions
system.cpu0.iew.iewDispNonSpecInsts           9138366                       # Number of dispatched non-speculative instructions
system.cpu0.iew.iewDispSquashedInsts          5257416                       # Number of squashed instructions skipped by dispatch
system.cpu0.iew.iewDispStoreInsts           289043412                       # Number of dispatched store instructions
system.cpu0.iew.iewDispatchedInsts         2416835171                       # Number of instructions dispatched to IQ
system.cpu0.iew.iewExecLoadInsts            734203818                       # Number of load instructions executed
system.cpu0.iew.iewExecSquashedInsts         13415124                       # Number of squashed instructions skipped in execute
system.cpu0.iew.iewExecutedInsts           2327286496                       # Number of executed instructions
system.cpu0.iew.iewIQFullEvents               4251453                       # Number of times the IQ has become full, causing a stall
system.cpu0.iew.iewIdleCycles                       0                       # Number of cycles IEW is idle
system.cpu0.iew.iewLSQFullEvents              7752226                       # Number of times the LSQ has become full, causing a stall
system.cpu0.iew.iewSquashCycles              16749263                       # Number of cycles IEW is squashing
system.cpu0.iew.iewUnblockCycles             15619438                       # Number of cycles IEW is unblocking
system.cpu0.iew.lsq.thread0.blockedLoads            0                       # Number of blocked loads due to partial load-store forwarding
system.cpu0.iew.lsq.thread0.cacheBlocked       190001                       # Number of times an access to memory failed due to the cache being blocked
system.cpu0.iew.lsq.thread0.forwLoads        33579500                       # Number of loads that had data forwarded from stores
system.cpu0.iew.lsq.thread0.ignoredResponses        73704                       # Number of memory responses ignored because the instruction is squashed
system.cpu0.iew.lsq.thread0.invAddrLoads            0                       # Number of loads ignored due to an invalid address
system.cpu0.iew.lsq.thread0.invAddrSwpfs            0                       # Number of software prefetches ignored due to an invalid address
system.cpu0.iew.lsq.thread0.memOrderViolation        23676                       # Number of memory ordering violations
system.cpu0.iew.lsq.thread0.rescheduledLoads      8648482                       # Number of loads that were rescheduled
system.cpu0.iew.lsq.thread0.squashedLoads     66851988                       # Number of loads squashed
system.cpu0.iew.lsq.thread0.squashedStores     20471393                       # Number of stores squashed
system.cpu0.iew.memOrderViolationEvents         23676                       # Number of memory order violations
system.cpu0.iew.predictedNotTakenIncorrect      2532668                       # Number of branches that were predicted not taken incorrectly
system.cpu0.iew.predictedTakenIncorrect      14388937                       # Number of branches that were predicted taken incorrectly
system.cpu0.iew.wb_consumers                949129284                       # num instructions consuming a value
system.cpu0.iew.wb_count                   2307609818                       # cumulative count of insts written-back
system.cpu0.iew.wb_fanout                    0.894074                       # average fanout of values written-back
system.cpu0.iew.wb_producers                848592048                       # num instructions producing a value
system.cpu0.iew.wb_rate                      0.536336                       # insts written-back per cycle
system.cpu0.iew.wb_sent                    2307752475                       # cumulative count of insts sent to commit
system.cpu0.int_regfile_reads              2844639086                       # number of integer regfile reads
system.cpu0.int_regfile_writes             1476037089                       # number of integer regfile writes
system.cpu0.ipc                              0.517157                       # IPC: Instructions Per Cycle
system.cpu0.ipc_total                        0.517157                       # IPC: Total IPC of All Threads
system.cpu0.iq.FU_type_0::No_OpClass          7611865      0.33%      0.33% # Type of FU issued
system.cpu0.iq.FU_type_0::IntAlu           1295048526     55.33%     55.65% # Type of FU issued
system.cpu0.iq.FU_type_0::IntMult            18327828      0.78%     56.44% # Type of FU issued
system.cpu0.iq.FU_type_0::IntDiv              3802450      0.16%     56.60% # Type of FU issued
system.cpu0.iq.FU_type_0::FloatAdd                  0      0.00%     56.60% # Type of FU issued
system.cpu0.iq.FU_type_0::FloatCmp                  4      0.00%     56.60% # Type of FU issued
system.cpu0.iq.FU_type_0::FloatCvt                 12      0.00%     56.60% # Type of FU issued
system.cpu0.iq.FU_type_0::FloatMult                 0      0.00%     56.60% # Type of FU issued
system.cpu0.iq.FU_type_0::FloatMultAcc              0      0.00%     56.60% # Type of FU issued
system.cpu0.iq.FU_type_0::FloatDiv                  2      0.00%     56.60% # Type of FU issued
system.cpu0.iq.FU_type_0::FloatMisc                 4      0.00%     56.60% # Type of FU issued
system.cpu0.iq.FU_type_0::FloatSqrt                 0      0.00%     56.60% # Type of FU issued
system.cpu0.iq.FU_type_0::SimdAdd                   0      0.00%     56.60% # Type of FU issued
system.cpu0.iq.FU_type_0::SimdAddAcc                0      0.00%     56.60% # Type of FU issued
system.cpu0.iq.FU_type_0::SimdAlu                   0      0.00%     56.60% # Type of FU issued
system.cpu0.iq.FU_type_0::SimdCmp                   0      0.00%     56.60% # Type of FU issued
system.cpu0.iq.FU_type_0::SimdCvt                   0      0.00%     56.60% # Type of FU issued
system.cpu0.iq.FU_type_0::SimdMisc                  0      0.00%     56.60% # Type of FU issued
system.cpu0.iq.FU_type_0::SimdMult                  0      0.00%     56.60% # Type of FU issued
system.cpu0.iq.FU_type_0::SimdMultAcc               0      0.00%     56.60% # Type of FU issued
system.cpu0.iq.FU_type_0::SimdShift                 0      0.00%     56.60% # Type of FU issued
system.cpu0.iq.FU_type_0::SimdShiftAcc              0      0.00%     56.60% # Type of FU issued
system.cpu0.iq.FU_type_0::SimdDiv                   0      0.00%     56.60% # Type of FU issued
system.cpu0.iq.FU_type_0::SimdSqrt                  0      0.00%     56.60% # Type of FU issued
system.cpu0.iq.FU_type_0::SimdFloatAdd              0      0.00%     56.60% # Type of FU issued
system.cpu0.iq.FU_type_0::SimdFloatAlu              0      0.00%     56.60% # Type of FU issued
system.cpu0.iq.FU_type_0::SimdFloatCmp              0      0.00%     56.60% # Type of FU issued
system.cpu0.iq.FU_type_0::SimdFloatCvt              0      0.00%     56.60% # Type of FU issued
system.cpu0.iq.FU_type_0::SimdFloatDiv              0      0.00%     56.60% # Type of FU issued
system.cpu0.iq.FU_type_0::SimdFloatMisc             0      0.00%     56.60% # Type of FU issued
system.cpu0.iq.FU_type_0::SimdFloatMult             0      0.00%     56.60% # Type of FU issued
system.cpu0.iq.FU_type_0::SimdFloatMultAcc            0      0.00%     56.60% # Type of FU issued
system.cpu0.iq.FU_type_0::SimdFloatSqrt             0      0.00%     56.60% # Type of FU issued
system.cpu0.iq.FU_type_0::SimdReduceAdd             0      0.00%     56.60% # Type of FU issued
system.cpu0.iq.FU_type_0::SimdReduceAlu             0      0.00%     56.60% # Type of FU issued
system.cpu0.iq.FU_type_0::SimdReduceCmp             0      0.00%     56.60% # Type of FU issued
system.cpu0.iq.FU_type_0::SimdFloatReduceAdd            0      0.00%     56.60% # Type of FU issued
system.cpu0.iq.FU_type_0::SimdFloatReduceCmp            0      0.00%     56.60% # Type of FU issued
system.cpu0.iq.FU_type_0::SimdAes                   0      0.00%     56.60% # Type of FU issued
system.cpu0.iq.FU_type_0::SimdAesMix                0      0.00%     56.60% # Type of FU issued
system.cpu0.iq.FU_type_0::SimdSha1Hash              0      0.00%     56.60% # Type of FU issued
system.cpu0.iq.FU_type_0::SimdSha1Hash2             0      0.00%     56.60% # Type of FU issued
system.cpu0.iq.FU_type_0::SimdSha256Hash            0      0.00%     56.60% # Type of FU issued
system.cpu0.iq.FU_type_0::SimdSha256Hash2            0      0.00%     56.60% # Type of FU issued
system.cpu0.iq.FU_type_0::SimdShaSigma2             0      0.00%     56.60% # Type of FU issued
system.cpu0.iq.FU_type_0::SimdShaSigma3             0      0.00%     56.60% # Type of FU issued
system.cpu0.iq.FU_type_0::SimdPredAlu               0      0.00%     56.60% # Type of FU issued
system.cpu0.iq.FU_type_0::MemRead           742179782     31.71%     88.31% # Type of FU issued
system.cpu0.iq.FU_type_0::MemWrite          273731124     11.69%    100.00% # Type of FU issued
system.cpu0.iq.FU_type_0::FloatMemRead              8      0.00%    100.00% # Type of FU issued
system.cpu0.iq.FU_type_0::FloatMemWrite            16      0.00%    100.00% # Type of FU issued
system.cpu0.iq.FU_type_0::IprAccess                 0      0.00%    100.00% # Type of FU issued
system.cpu0.iq.FU_type_0::InstPrefetch              0      0.00%    100.00% # Type of FU issued
system.cpu0.iq.FU_type_0::total            2340701621                       # Type of FU issued
system.cpu0.iq.fp_alu_accesses                     48                       # Number of floating point alu accesses
system.cpu0.iq.fp_inst_queue_reads                 94                       # Number of floating instruction queue reads
system.cpu0.iq.fp_inst_queue_wakeup_accesses           46                       # Number of floating instruction queue wakeup accesses
system.cpu0.iq.fp_inst_queue_writes              1034                       # Number of floating instruction queue writes
system.cpu0.iq.fu_busy_cnt                    4445817                       # FU busy when requested
system.cpu0.iq.fu_busy_rate                  0.001899                       # FU busy rate (busy events/executed inst)
system.cpu0.iq.fu_full::No_OpClass                  0      0.00%      0.00% # attempts to use FU when none available
system.cpu0.iq.fu_full::IntAlu                 769906     17.32%     17.32% # attempts to use FU when none available
system.cpu0.iq.fu_full::IntMult                     0      0.00%     17.32% # attempts to use FU when none available
system.cpu0.iq.fu_full::IntDiv                      0      0.00%     17.32% # attempts to use FU when none available
system.cpu0.iq.fu_full::FloatAdd                    0      0.00%     17.32% # attempts to use FU when none available
system.cpu0.iq.fu_full::FloatCmp                    0      0.00%     17.32% # attempts to use FU when none available
system.cpu0.iq.fu_full::FloatCvt                    0      0.00%     17.32% # attempts to use FU when none available
system.cpu0.iq.fu_full::FloatMult                   0      0.00%     17.32% # attempts to use FU when none available
system.cpu0.iq.fu_full::FloatMultAcc                0      0.00%     17.32% # attempts to use FU when none available
system.cpu0.iq.fu_full::FloatDiv                    0      0.00%     17.32% # attempts to use FU when none available
system.cpu0.iq.fu_full::FloatMisc                   0      0.00%     17.32% # attempts to use FU when none available
system.cpu0.iq.fu_full::FloatSqrt                   0      0.00%     17.32% # attempts to use FU when none available
system.cpu0.iq.fu_full::SimdAdd                     0      0.00%     17.32% # attempts to use FU when none available
system.cpu0.iq.fu_full::SimdAddAcc                  0      0.00%     17.32% # attempts to use FU when none available
system.cpu0.iq.fu_full::SimdAlu                     0      0.00%     17.32% # attempts to use FU when none available
system.cpu0.iq.fu_full::SimdCmp                     0      0.00%     17.32% # attempts to use FU when none available
system.cpu0.iq.fu_full::SimdCvt                     0      0.00%     17.32% # attempts to use FU when none available
system.cpu0.iq.fu_full::SimdMisc                    0      0.00%     17.32% # attempts to use FU when none available
system.cpu0.iq.fu_full::SimdMult                    0      0.00%     17.32% # attempts to use FU when none available
system.cpu0.iq.fu_full::SimdMultAcc                 0      0.00%     17.32% # attempts to use FU when none available
system.cpu0.iq.fu_full::SimdShift                   0      0.00%     17.32% # attempts to use FU when none available
system.cpu0.iq.fu_full::SimdShiftAcc                0      0.00%     17.32% # attempts to use FU when none available
system.cpu0.iq.fu_full::SimdDiv                     0      0.00%     17.32% # attempts to use FU when none available
system.cpu0.iq.fu_full::SimdSqrt                    0      0.00%     17.32% # attempts to use FU when none available
system.cpu0.iq.fu_full::SimdFloatAdd                0      0.00%     17.32% # attempts to use FU when none available
system.cpu0.iq.fu_full::SimdFloatAlu                0      0.00%     17.32% # attempts to use FU when none available
system.cpu0.iq.fu_full::SimdFloatCmp                0      0.00%     17.32% # attempts to use FU when none available
system.cpu0.iq.fu_full::SimdFloatCvt                0      0.00%     17.32% # attempts to use FU when none available
system.cpu0.iq.fu_full::SimdFloatDiv                0      0.00%     17.32% # attempts to use FU when none available
system.cpu0.iq.fu_full::SimdFloatMisc               0      0.00%     17.32% # attempts to use FU when none available
system.cpu0.iq.fu_full::SimdFloatMult               0      0.00%     17.32% # attempts to use FU when none available
system.cpu0.iq.fu_full::SimdFloatMultAcc            0      0.00%     17.32% # attempts to use FU when none available
system.cpu0.iq.fu_full::SimdFloatSqrt               0      0.00%     17.32% # attempts to use FU when none available
system.cpu0.iq.fu_full::SimdReduceAdd               0      0.00%     17.32% # attempts to use FU when none available
system.cpu0.iq.fu_full::SimdReduceAlu               0      0.00%     17.32% # attempts to use FU when none available
system.cpu0.iq.fu_full::SimdReduceCmp               0      0.00%     17.32% # attempts to use FU when none available
system.cpu0.iq.fu_full::SimdFloatReduceAdd            0      0.00%     17.32% # attempts to use FU when none available
system.cpu0.iq.fu_full::SimdFloatReduceCmp            0      0.00%     17.32% # attempts to use FU when none available
system.cpu0.iq.fu_full::SimdAes                     0      0.00%     17.32% # attempts to use FU when none available
system.cpu0.iq.fu_full::SimdAesMix                  0      0.00%     17.32% # attempts to use FU when none available
system.cpu0.iq.fu_full::SimdSha1Hash                0      0.00%     17.32% # attempts to use FU when none available
system.cpu0.iq.fu_full::SimdSha1Hash2               0      0.00%     17.32% # attempts to use FU when none available
system.cpu0.iq.fu_full::SimdSha256Hash              0      0.00%     17.32% # attempts to use FU when none available
system.cpu0.iq.fu_full::SimdSha256Hash2             0      0.00%     17.32% # attempts to use FU when none available
system.cpu0.iq.fu_full::SimdShaSigma2               0      0.00%     17.32% # attempts to use FU when none available
system.cpu0.iq.fu_full::SimdShaSigma3               0      0.00%     17.32% # attempts to use FU when none available
system.cpu0.iq.fu_full::SimdPredAlu                 0      0.00%     17.32% # attempts to use FU when none available
system.cpu0.iq.fu_full::MemRead               3283819     73.86%     91.18% # attempts to use FU when none available
system.cpu0.iq.fu_full::MemWrite               392090      8.82%    100.00% # attempts to use FU when none available
system.cpu0.iq.fu_full::FloatMemRead                0      0.00%    100.00% # attempts to use FU when none available
system.cpu0.iq.fu_full::FloatMemWrite               2      0.00%    100.00% # attempts to use FU when none available
system.cpu0.iq.fu_full::IprAccess                   0      0.00%    100.00% # attempts to use FU when none available
system.cpu0.iq.fu_full::InstPrefetch                0      0.00%    100.00% # attempts to use FU when none available
system.cpu0.iq.int_alu_accesses            2337535525                       # Number of integer alu accesses
system.cpu0.iq.int_inst_queue_reads        8699473295                       # Number of integer instruction queue reads
system.cpu0.iq.int_inst_queue_wakeup_accesses   2307609772                       # Number of integer instruction queue wakeup accesses
system.cpu0.iq.int_inst_queue_writes       2604792858                       # Number of integer instruction queue writes
system.cpu0.iq.iqInstsAdded                2389464581                       # Number of instructions added to the IQ (excludes non-spec)
system.cpu0.iq.iqInstsIssued               2340701621                       # Number of instructions issued
system.cpu0.iq.iqNonSpecInstsAdded           27370590                       # Number of non-speculative instructions added to the IQ
system.cpu0.iq.iqSquashedInstsExamined      187936330                       # Number of squashed instructions iterated over during squash; mainly for profiling
system.cpu0.iq.iqSquashedInstsIssued           260552                       # Number of squashed instructions issued
system.cpu0.iq.iqSquashedNonSpecRemoved      15951085                       # Number of squashed non-spec instructions that were removed
system.cpu0.iq.iqSquashedOperandsExamined    110929798                       # Number of squashed operands that are examined and possibly removed from graph
system.cpu0.iq.issued_per_cycle::samples   4013363779                       # Number of insts issued each cycle
system.cpu0.iq.issued_per_cycle::mean        0.583227                       # Number of insts issued each cycle
system.cpu0.iq.issued_per_cycle::stdev       0.797904                       # Number of insts issued each cycle
system.cpu0.iq.issued_per_cycle::underflows            0      0.00%      0.00% # Number of insts issued each cycle
system.cpu0.iq.issued_per_cycle::0         2302573066     57.37%     57.37% # Number of insts issued each cycle
system.cpu0.iq.issued_per_cycle::1         1196400581     29.81%     87.18% # Number of insts issued each cycle
system.cpu0.iq.issued_per_cycle::2          428025580     10.67%     97.85% # Number of insts issued each cycle
system.cpu0.iq.issued_per_cycle::3           67840951      1.69%     99.54% # Number of insts issued each cycle
system.cpu0.iq.issued_per_cycle::4           11231403      0.28%     99.82% # Number of insts issued each cycle
system.cpu0.iq.issued_per_cycle::5            4941328      0.12%     99.94% # Number of insts issued each cycle
system.cpu0.iq.issued_per_cycle::6            1596489      0.04%     99.98% # Number of insts issued each cycle
system.cpu0.iq.issued_per_cycle::7             519207      0.01%     99.99% # Number of insts issued each cycle
system.cpu0.iq.issued_per_cycle::8             235174      0.01%    100.00% # Number of insts issued each cycle
system.cpu0.iq.issued_per_cycle::overflows            0      0.00%    100.00% # Number of insts issued each cycle
system.cpu0.iq.issued_per_cycle::min_value            0                       # Number of insts issued each cycle
system.cpu0.iq.issued_per_cycle::max_value            8                       # Number of insts issued each cycle
system.cpu0.iq.issued_per_cycle::total     4013363779                       # Number of insts issued each cycle
system.cpu0.iq.rate                          0.544027                       # Inst issue rate
system.cpu0.iq.vec_alu_accesses                     0                       # Number of vector alu accesses
system.cpu0.iq.vec_inst_queue_reads                 0                       # Number of vector instruction queue reads
system.cpu0.iq.vec_inst_queue_wakeup_accesses            0                       # Number of vector instruction queue wakeup accesses
system.cpu0.iq.vec_inst_queue_writes                0                       # Number of vector instruction queue writes
system.cpu0.itb.accesses                            0                       # DTB accesses
system.cpu0.itb.hits                                0                       # DTB hits
system.cpu0.itb.misses                              0                       # DTB misses
system.cpu0.itb.read_accesses                       0                       # DTB read accesses
system.cpu0.itb.read_hits                           0                       # DTB read hits
system.cpu0.itb.read_misses                         0                       # DTB read misses
system.cpu0.itb.write_accesses                      0                       # DTB write accesses
system.cpu0.itb.write_hits                          0                       # DTB write hits
system.cpu0.itb.write_misses                        0                       # DTB write misses
system.cpu0.memDep0.conflictingLoads         60953638                       # Number of conflicting loads.
system.cpu0.memDep0.conflictingStores         9829709                       # Number of conflicting stores.
system.cpu0.memDep0.insertedLoads           758453117                       # Number of loads inserted to the mem dependence unit.
system.cpu0.memDep0.insertedStores          289043412                       # Number of stores inserted to the mem dependence unit.
system.cpu0.misc_regfile_reads                   2897                       # number of misc regfile reads
system.cpu0.misc_regfile_writes                    22                       # number of misc regfile writes
system.cpu0.numCycles                      4302546048                       # number of cpu cycles simulated
system.cpu0.numWorkItemsCompleted                   0                       # number of work items this cpu completed
system.cpu0.numWorkItemsStarted                     0                       # number of work items this cpu started
system.cpu0.quiesceCycles                     4440395                       # Total number of cycles that CPU has spent quiesced or waiting for an interrupt
system.cpu0.rename.BlockCycles              532170754                       # Number of cycles rename is blocking
system.cpu0.rename.CommittedMaps           1421533181                       # Number of HB maps that are committed
system.cpu0.rename.IQFullEvents              14739522                       # Number of times rename has blocked due to IQ full
system.cpu0.rename.IdleCycles              1719109810                       # Number of cycles rename is idle
system.cpu0.rename.LQFullEvents              16588066                       # Number of times rename has blocked due to LQ full
system.cpu0.rename.ROBFullEvents                59470                       # Number of times rename has blocked due to ROB full
system.cpu0.rename.RenameLookups           2981868278                       # Number of register rename lookups that rename has made
system.cpu0.rename.RenamedInsts            2440949901                       # Number of instructions processed by rename
system.cpu0.rename.RenamedOperands         1570072193                       # Number of destination operands rename has renamed
system.cpu0.rename.RunCycles               1688386061                       # Number of cycles rename is running
system.cpu0.rename.SQFullEvents              22959350                       # Number of times rename has blocked due to SQ full
system.cpu0.rename.SquashCycles              16749263                       # Number of cycles rename is squashing
system.cpu0.rename.UnblockCycles             56717103                       # Number of cycles rename is unblocking
system.cpu0.rename.UndoneMaps               148539004                       # Number of HB maps that are undone due to squashing
system.cpu0.rename.fp_rename_lookups               40                       # Number of floating rename lookups
system.cpu0.rename.int_rename_lookups      2981868238                       # Number of integer rename lookups
system.cpu0.rename.serializeStallCycles        230788                       # count of cycles rename stalled for serializing inst
system.cpu0.rename.serializingInsts              8897                       # count of serializing insts renamed
system.cpu0.rename.skidInsts                 35705486                       # count of insts added to the skid buffer
system.cpu0.rename.tempSerializingInsts          8893                       # count of temporary serializing insts renamed
system.cpu0.rob.rob_reads                  6333499089                       # The number of ROB reads
system.cpu0.rob.rob_writes                 4868862998                       # The number of ROB writes
system.cpu0.timesIdled                       54019097                       # Number of times that the entire CPU went into an idle state and unscheduled itself
system.cpu0.workload.numSyscalls                 2864                       # Number of system calls
system.cpu1.branchPred.BTBCorrect                   0                       # Number of correct BTB predictions (this stat may not work properly.
system.cpu1.branchPred.BTBHitPct            93.656520                       # BTB Hit Percentage
system.cpu1.branchPred.BTBHits               17855402                       # Number of BTB hits
system.cpu1.branchPred.BTBLookups            19064772                       # Number of BTB lookups
system.cpu1.branchPred.RASInCorrect                 0                       # Number of incorrect RAS predictions.
system.cpu1.branchPred.condIncorrect          1778693                       # Number of conditional branches incorrect
system.cpu1.branchPred.condPredicted         32384953                       # Number of conditional branches predicted
system.cpu1.branchPred.indirectHits            912207                       # Number of indirect target hits.
system.cpu1.branchPred.indirectLookups         920243                       # Number of indirect predictor lookups.
system.cpu1.branchPred.indirectMisses            8036                       # Number of indirect misses.
system.cpu1.branchPred.lookups               35536011                       # Number of BP lookups
system.cpu1.branchPred.usedRAS                      0                       # Number of times the RAS was used to get a target.
system.cpu1.branchPredindirectMispredicted        46803                       # Number of mispredicted indirect branches.
system.cpu1.commit.amos                       3801575                       # Number of atomic instructions committed
system.cpu1.commit.branchMispredicts          1378632                       # The number of times a branch was mispredicted
system.cpu1.commit.branches                  29517931                       # Number of branches committed
system.cpu1.commit.bw_lim_events              3189249                       # number cycles where commit BW limit reached
system.cpu1.commit.commitNonSpecStalls       11405411                       # The number of times commit has been forced to stall to communicate backwards
system.cpu1.commit.commitSquashedInsts       14472989                       # The number of squashed insts skipped by commit
system.cpu1.commit.committedInsts           130070926                       # Number of instructions committed
system.cpu1.commit.committedOps             133872681                       # Number of ops (including micro ops) committed
system.cpu1.commit.committed_per_cycle::samples    670881995                       # Number of insts commited each cycle
system.cpu1.commit.committed_per_cycle::mean     0.199547                       # Number of insts commited each cycle
system.cpu1.commit.committed_per_cycle::stdev     0.880089                       # Number of insts commited each cycle
system.cpu1.commit.committed_per_cycle::underflows            0      0.00%      0.00% # Number of insts commited each cycle
system.cpu1.commit.committed_per_cycle::0    615886217     91.80%     91.80% # Number of insts commited each cycle
system.cpu1.commit.committed_per_cycle::1     27039505      4.03%     95.83% # Number of insts commited each cycle
system.cpu1.commit.committed_per_cycle::2      8691911      1.30%     97.13% # Number of insts commited each cycle
system.cpu1.commit.committed_per_cycle::3      8978513      1.34%     98.47% # Number of insts commited each cycle
system.cpu1.commit.committed_per_cycle::4      2513086      0.37%     98.84% # Number of insts commited each cycle
system.cpu1.commit.committed_per_cycle::5       802424      0.12%     98.96% # Number of insts commited each cycle
system.cpu1.commit.committed_per_cycle::6      3532271      0.53%     99.49% # Number of insts commited each cycle
system.cpu1.commit.committed_per_cycle::7       248819      0.04%     99.52% # Number of insts commited each cycle
system.cpu1.commit.committed_per_cycle::8      3189249      0.48%    100.00% # Number of insts commited each cycle
system.cpu1.commit.committed_per_cycle::overflows            0      0.00%    100.00% # Number of insts commited each cycle
system.cpu1.commit.committed_per_cycle::min_value            0                       # Number of insts commited each cycle
system.cpu1.commit.committed_per_cycle::max_value            8                       # Number of insts commited each cycle
system.cpu1.commit.committed_per_cycle::total    670881995                       # Number of insts commited each cycle
system.cpu1.commit.fp_insts                        12                       # Number of committed floating point instructions.
system.cpu1.commit.function_calls             1457243                       # Number of function calls committed.
system.cpu1.commit.int_insts                125276851                       # Number of committed integer instructions.
system.cpu1.commit.loads                     36890671                       # Number of loads committed
system.cpu1.commit.membars                    7603277                       # Number of memory barriers committed
system.cpu1.commit.op_class_0::No_OpClass      7603277      5.68%      5.68% # Class of committed instruction
system.cpu1.commit.op_class_0::IntAlu        77454016     57.86%     63.54% # Class of committed instruction
system.cpu1.commit.op_class_0::IntMult             44      0.00%     63.54% # Class of committed instruction
system.cpu1.commit.op_class_0::IntDiv              88      0.00%     63.54% # Class of committed instruction
system.cpu1.commit.op_class_0::FloatAdd             0      0.00%     63.54% # Class of committed instruction
system.cpu1.commit.op_class_0::FloatCmp             0      0.00%     63.54% # Class of committed instruction
system.cpu1.commit.op_class_0::FloatCvt             0      0.00%     63.54% # Class of committed instruction
system.cpu1.commit.op_class_0::FloatMult            0      0.00%     63.54% # Class of committed instruction
system.cpu1.commit.op_class_0::FloatMultAcc            0      0.00%     63.54% # Class of committed instruction
system.cpu1.commit.op_class_0::FloatDiv             0      0.00%     63.54% # Class of committed instruction
system.cpu1.commit.op_class_0::FloatMisc            0      0.00%     63.54% # Class of committed instruction
system.cpu1.commit.op_class_0::FloatSqrt            0      0.00%     63.54% # Class of committed instruction
system.cpu1.commit.op_class_0::SimdAdd              0      0.00%     63.54% # Class of committed instruction
system.cpu1.commit.op_class_0::SimdAddAcc            0      0.00%     63.54% # Class of committed instruction
system.cpu1.commit.op_class_0::SimdAlu              0      0.00%     63.54% # Class of committed instruction
system.cpu1.commit.op_class_0::SimdCmp              0      0.00%     63.54% # Class of committed instruction
system.cpu1.commit.op_class_0::SimdCvt              0      0.00%     63.54% # Class of committed instruction
system.cpu1.commit.op_class_0::SimdMisc             0      0.00%     63.54% # Class of committed instruction
system.cpu1.commit.op_class_0::SimdMult             0      0.00%     63.54% # Class of committed instruction
system.cpu1.commit.op_class_0::SimdMultAcc            0      0.00%     63.54% # Class of committed instruction
system.cpu1.commit.op_class_0::SimdShift            0      0.00%     63.54% # Class of committed instruction
system.cpu1.commit.op_class_0::SimdShiftAcc            0      0.00%     63.54% # Class of committed instruction
system.cpu1.commit.op_class_0::SimdDiv              0      0.00%     63.54% # Class of committed instruction
system.cpu1.commit.op_class_0::SimdSqrt             0      0.00%     63.54% # Class of committed instruction
system.cpu1.commit.op_class_0::SimdFloatAdd            0      0.00%     63.54% # Class of committed instruction
system.cpu1.commit.op_class_0::SimdFloatAlu            0      0.00%     63.54% # Class of committed instruction
system.cpu1.commit.op_class_0::SimdFloatCmp            0      0.00%     63.54% # Class of committed instruction
system.cpu1.commit.op_class_0::SimdFloatCvt            0      0.00%     63.54% # Class of committed instruction
system.cpu1.commit.op_class_0::SimdFloatDiv            0      0.00%     63.54% # Class of committed instruction
system.cpu1.commit.op_class_0::SimdFloatMisc            0      0.00%     63.54% # Class of committed instruction
system.cpu1.commit.op_class_0::SimdFloatMult            0      0.00%     63.54% # Class of committed instruction
system.cpu1.commit.op_class_0::SimdFloatMultAcc            0      0.00%     63.54% # Class of committed instruction
system.cpu1.commit.op_class_0::SimdFloatSqrt            0      0.00%     63.54% # Class of committed instruction
system.cpu1.commit.op_class_0::SimdReduceAdd            0      0.00%     63.54% # Class of committed instruction
system.cpu1.commit.op_class_0::SimdReduceAlu            0      0.00%     63.54% # Class of committed instruction
system.cpu1.commit.op_class_0::SimdReduceCmp            0      0.00%     63.54% # Class of committed instruction
system.cpu1.commit.op_class_0::SimdFloatReduceAdd            0      0.00%     63.54% # Class of committed instruction
system.cpu1.commit.op_class_0::SimdFloatReduceCmp            0      0.00%     63.54% # Class of committed instruction
system.cpu1.commit.op_class_0::SimdAes              0      0.00%     63.54% # Class of committed instruction
system.cpu1.commit.op_class_0::SimdAesMix            0      0.00%     63.54% # Class of committed instruction
system.cpu1.commit.op_class_0::SimdSha1Hash            0      0.00%     63.54% # Class of committed instruction
system.cpu1.commit.op_class_0::SimdSha1Hash2            0      0.00%     63.54% # Class of committed instruction
system.cpu1.commit.op_class_0::SimdSha256Hash            0      0.00%     63.54% # Class of committed instruction
system.cpu1.commit.op_class_0::SimdSha256Hash2            0      0.00%     63.54% # Class of committed instruction
system.cpu1.commit.op_class_0::SimdShaSigma2            0      0.00%     63.54% # Class of committed instruction
system.cpu1.commit.op_class_0::SimdShaSigma3            0      0.00%     63.54% # Class of committed instruction
system.cpu1.commit.op_class_0::SimdPredAlu            0      0.00%     63.54% # Class of committed instruction
system.cpu1.commit.op_class_0::MemRead       40692246     30.40%     93.93% # Class of committed instruction
system.cpu1.commit.op_class_0::MemWrite       8122998      6.07%    100.00% # Class of committed instruction
system.cpu1.commit.op_class_0::FloatMemRead            0      0.00%    100.00% # Class of committed instruction
system.cpu1.commit.op_class_0::FloatMemWrite           12      0.00%    100.00% # Class of committed instruction
system.cpu1.commit.op_class_0::IprAccess            0      0.00%    100.00% # Class of committed instruction
system.cpu1.commit.op_class_0::InstPrefetch            0      0.00%    100.00% # Class of committed instruction
system.cpu1.commit.op_class_0::total        133872681                       # Class of committed instruction
system.cpu1.commit.refs                      48815256                       # Number of memory references committed
system.cpu1.commit.swp_count                        0                       # Number of s/w prefetches committed
system.cpu1.commit.vec_insts                        0                       # Number of committed Vector instructions.
system.cpu1.committedInsts                  130070926                       # Number of Instructions Simulated
system.cpu1.committedOps                    133872681                       # Number of Ops (including micro ops) Simulated
system.cpu1.cpi                              5.187136                       # CPI: Cycles Per Instruction
system.cpu1.cpi_total                        5.187136                       # CPI: Total CPI of All Threads
system.cpu1.decode.BlockedCycles            594641239                       # Number of cycles decode is blocked
system.cpu1.decode.BranchMispred               417840                       # Number of times decode detected a branch misprediction
system.cpu1.decode.BranchResolved            17185158                       # Number of times decode resolved a branch
system.cpu1.decode.DecodedInsts             154004285                       # Number of instructions handled by decode
system.cpu1.decode.IdleCycles                17980577                       # Number of cycles decode is idle
system.cpu1.decode.RunCycles                 50948258                       # Number of cycles decode is running
system.cpu1.decode.SquashCycles               1379982                       # Number of cycles decode is squashing
system.cpu1.decode.SquashedInsts              1112927                       # Number of squashed instructions handled by decode
system.cpu1.decode.UnblockCycles              8682822                       # Number of cycles decode is unblocking
system.cpu1.dtb.accesses                            0                       # DTB accesses
system.cpu1.dtb.hits                                0                       # DTB hits
system.cpu1.dtb.misses                              0                       # DTB misses
system.cpu1.dtb.read_accesses                       0                       # DTB read accesses
system.cpu1.dtb.read_hits                           0                       # DTB read hits
system.cpu1.dtb.read_misses                         0                       # DTB read misses
system.cpu1.dtb.write_accesses                      0                       # DTB write accesses
system.cpu1.dtb.write_hits                          0                       # DTB write hits
system.cpu1.dtb.write_misses                        0                       # DTB write misses
system.cpu1.fetch.Branches                   35536011                       # Number of branches that fetch encountered
system.cpu1.fetch.CacheLines                 19699495                       # Number of cache lines fetched
system.cpu1.fetch.Cycles                    650907789                       # Number of cycles fetch has run and was not squashing or blocked
system.cpu1.fetch.IcacheSquashes               145873                       # Number of outstanding Icache misses that were squashed
system.cpu1.fetch.IcacheWaitRetryStallCycles           16                       # Number of stall cycles due to full MSHR
system.cpu1.fetch.Insts                     155112742                       # Number of instructions fetch has processed
system.cpu1.fetch.MiscStallCycles                   2                       # Number of cycles fetch has spent waiting on interrupts, or bad addresses, or out of MSHRs
system.cpu1.fetch.SquashCycles                3560086                       # Number of cycles fetch has spent squashing
system.cpu1.fetch.branchRate                 0.052670                       # Number of branch fetches per cycle
system.cpu1.fetch.icacheStallCycles          20945028                       # Number of cycles fetch is stalled on an Icache miss
system.cpu1.fetch.predictedBranches          18767609                       # Number of branches that fetch has predicted taken
system.cpu1.fetch.rate                       0.229900                       # Number of inst fetches per cycle
system.cpu1.fetch.rateDist::samples         673632878                       # Number of instructions fetched each cycle (Total)
system.cpu1.fetch.rateDist::mean             0.235907                       # Number of instructions fetched each cycle (Total)
system.cpu1.fetch.rateDist::stdev            0.681357                       # Number of instructions fetched each cycle (Total)
system.cpu1.fetch.rateDist::underflows              0      0.00%      0.00% # Number of instructions fetched each cycle (Total)
system.cpu1.fetch.rateDist::0               579192530     85.98%     85.98% # Number of instructions fetched each cycle (Total)
system.cpu1.fetch.rateDist::1                53139682      7.89%     93.87% # Number of instructions fetched each cycle (Total)
system.cpu1.fetch.rateDist::2                25108479      3.73%     97.60% # Number of instructions fetched each cycle (Total)
system.cpu1.fetch.rateDist::3                10163827      1.51%     99.11% # Number of instructions fetched each cycle (Total)
system.cpu1.fetch.rateDist::4                 5142022      0.76%     99.87% # Number of instructions fetched each cycle (Total)
system.cpu1.fetch.rateDist::5                  820912      0.12%     99.99% # Number of instructions fetched each cycle (Total)
system.cpu1.fetch.rateDist::6                   64515      0.01%    100.00% # Number of instructions fetched each cycle (Total)
system.cpu1.fetch.rateDist::7                     187      0.00%    100.00% # Number of instructions fetched each cycle (Total)
system.cpu1.fetch.rateDist::8                     724      0.00%    100.00% # Number of instructions fetched each cycle (Total)
system.cpu1.fetch.rateDist::overflows               0      0.00%    100.00% # Number of instructions fetched each cycle (Total)
system.cpu1.fetch.rateDist::min_value               0                       # Number of instructions fetched each cycle (Total)
system.cpu1.fetch.rateDist::max_value               8                       # Number of instructions fetched each cycle (Total)
system.cpu1.fetch.rateDist::total           673632878                       # Number of instructions fetched each cycle (Total)
system.cpu1.fp_regfile_reads                       12                       # number of floating regfile reads
system.cpu1.idleCycles                        1062649                       # Total number of cycles that the CPU has spent unscheduled due to idling
system.cpu1.iew.branchMispredicts             1495464                       # Number of branch mispredicts detected at execute
system.cpu1.iew.exec_branches                31484466                       # Number of branches executed
system.cpu1.iew.exec_nop                            0                       # number of nop insts executed
system.cpu1.iew.exec_rate                    0.213341                       # Inst execution rate
system.cpu1.iew.exec_refs                    51946450                       # number of memory reference insts executed
system.cpu1.iew.exec_stores                  12351854                       # Number of stores executed
system.cpu1.iew.exec_swp                            0                       # number of swp insts executed
system.cpu1.iew.iewBlockCycles              511743412                       # Number of cycles IEW is blocking
system.cpu1.iew.iewDispLoadInsts             40113878                       # Number of dispatched load instructions
system.cpu1.iew.iewDispNonSpecInsts           3802267                       # Number of dispatched non-speculative instructions
system.cpu1.iew.iewDispSquashedInsts          1193111                       # Number of squashed instructions skipped by dispatch
system.cpu1.iew.iewDispStoreInsts            12675310                       # Number of dispatched store instructions
system.cpu1.iew.iewDispatchedInsts          148333277                       # Number of instructions dispatched to IQ
system.cpu1.iew.iewExecLoadInsts             39594596                       # Number of load instructions executed
system.cpu1.iew.iewExecSquashedInsts          1520149                       # Number of squashed instructions skipped in execute
system.cpu1.iew.iewExecutedInsts            143939997                       # Number of executed instructions
system.cpu1.iew.iewIQFullEvents               3219674                       # Number of times the IQ has become full, causing a stall
system.cpu1.iew.iewIdleCycles                       0                       # Number of cycles IEW is idle
system.cpu1.iew.iewLSQFullEvents              3785038                       # Number of times the LSQ has become full, causing a stall
system.cpu1.iew.iewSquashCycles               1379982                       # Number of cycles IEW is squashing
system.cpu1.iew.iewUnblockCycles             11267098                       # Number of cycles IEW is unblocking
system.cpu1.iew.lsq.thread0.blockedLoads            0                       # Number of blocked loads due to partial load-store forwarding
system.cpu1.iew.lsq.thread0.cacheBlocked        52702                       # Number of times an access to memory failed due to the cache being blocked
system.cpu1.iew.lsq.thread0.forwLoads         1064372                       # Number of loads that had data forwarded from stores
system.cpu1.iew.lsq.thread0.ignoredResponses        32598                       # Number of memory responses ignored because the instruction is squashed
system.cpu1.iew.lsq.thread0.invAddrLoads            0                       # Number of loads ignored due to an invalid address
system.cpu1.iew.lsq.thread0.invAddrSwpfs            0                       # Number of software prefetches ignored due to an invalid address
system.cpu1.iew.lsq.thread0.memOrderViolation         1590                       # Number of memory ordering violations
system.cpu1.iew.lsq.thread0.rescheduledLoads         4413                       # Number of loads that were rescheduled
system.cpu1.iew.lsq.thread0.squashedLoads      3223207                       # Number of loads squashed
system.cpu1.iew.lsq.thread0.squashedStores       750725                       # Number of stores squashed
system.cpu1.iew.memOrderViolationEvents          1590                       # Number of memory order violations
system.cpu1.iew.predictedNotTakenIncorrect       508873                       # Number of branches that were predicted not taken incorrectly
system.cpu1.iew.predictedTakenIncorrect        986591                       # Number of branches that were predicted taken incorrectly
system.cpu1.iew.wb_consumers                 82151814                       # num instructions consuming a value
system.cpu1.iew.wb_count                    142917268                       # cumulative count of insts written-back
system.cpu1.iew.wb_fanout                    0.858670                       # average fanout of values written-back
system.cpu1.iew.wb_producers                 70541297                       # num instructions producing a value
system.cpu1.iew.wb_rate                      0.211825                       # insts written-back per cycle
system.cpu1.iew.wb_sent                     142959221                       # cumulative count of insts sent to commit
system.cpu1.int_regfile_reads               179031153                       # number of integer regfile reads
system.cpu1.int_regfile_writes               96091405                       # number of integer regfile writes
system.cpu1.ipc                              0.192785                       # IPC: Instructions Per Cycle
system.cpu1.ipc_total                        0.192785                       # IPC: Total IPC of All Threads
system.cpu1.iq.FU_type_0::No_OpClass          7603383      5.23%      5.23% # Type of FU issued
system.cpu1.iq.FU_type_0::IntAlu             85483311     58.77%     63.99% # Type of FU issued
system.cpu1.iq.FU_type_0::IntMult                  45      0.00%     63.99% # Type of FU issued
system.cpu1.iq.FU_type_0::IntDiv                   90      0.00%     63.99% # Type of FU issued
system.cpu1.iq.FU_type_0::FloatAdd                  0      0.00%     63.99% # Type of FU issued
system.cpu1.iq.FU_type_0::FloatCmp                  0      0.00%     63.99% # Type of FU issued
system.cpu1.iq.FU_type_0::FloatCvt                  0      0.00%     63.99% # Type of FU issued
system.cpu1.iq.FU_type_0::FloatMult                 0      0.00%     63.99% # Type of FU issued
system.cpu1.iq.FU_type_0::FloatMultAcc              0      0.00%     63.99% # Type of FU issued
system.cpu1.iq.FU_type_0::FloatDiv                  0      0.00%     63.99% # Type of FU issued
system.cpu1.iq.FU_type_0::FloatMisc                 0      0.00%     63.99% # Type of FU issued
system.cpu1.iq.FU_type_0::FloatSqrt                 0      0.00%     63.99% # Type of FU issued
system.cpu1.iq.FU_type_0::SimdAdd                   0      0.00%     63.99% # Type of FU issued
system.cpu1.iq.FU_type_0::SimdAddAcc                0      0.00%     63.99% # Type of FU issued
system.cpu1.iq.FU_type_0::SimdAlu                   0      0.00%     63.99% # Type of FU issued
system.cpu1.iq.FU_type_0::SimdCmp                   0      0.00%     63.99% # Type of FU issued
system.cpu1.iq.FU_type_0::SimdCvt                   0      0.00%     63.99% # Type of FU issued
system.cpu1.iq.FU_type_0::SimdMisc                  0      0.00%     63.99% # Type of FU issued
system.cpu1.iq.FU_type_0::SimdMult                  0      0.00%     63.99% # Type of FU issued
system.cpu1.iq.FU_type_0::SimdMultAcc               0      0.00%     63.99% # Type of FU issued
system.cpu1.iq.FU_type_0::SimdShift                 0      0.00%     63.99% # Type of FU issued
system.cpu1.iq.FU_type_0::SimdShiftAcc              0      0.00%     63.99% # Type of FU issued
system.cpu1.iq.FU_type_0::SimdDiv                   0      0.00%     63.99% # Type of FU issued
system.cpu1.iq.FU_type_0::SimdSqrt                  0      0.00%     63.99% # Type of FU issued
system.cpu1.iq.FU_type_0::SimdFloatAdd              0      0.00%     63.99% # Type of FU issued
system.cpu1.iq.FU_type_0::SimdFloatAlu              0      0.00%     63.99% # Type of FU issued
system.cpu1.iq.FU_type_0::SimdFloatCmp              0      0.00%     63.99% # Type of FU issued
system.cpu1.iq.FU_type_0::SimdFloatCvt              0      0.00%     63.99% # Type of FU issued
system.cpu1.iq.FU_type_0::SimdFloatDiv              0      0.00%     63.99% # Type of FU issued
system.cpu1.iq.FU_type_0::SimdFloatMisc             0      0.00%     63.99% # Type of FU issued
system.cpu1.iq.FU_type_0::SimdFloatMult             0      0.00%     63.99% # Type of FU issued
system.cpu1.iq.FU_type_0::SimdFloatMultAcc            0      0.00%     63.99% # Type of FU issued
system.cpu1.iq.FU_type_0::SimdFloatSqrt             0      0.00%     63.99% # Type of FU issued
system.cpu1.iq.FU_type_0::SimdReduceAdd             0      0.00%     63.99% # Type of FU issued
system.cpu1.iq.FU_type_0::SimdReduceAlu             0      0.00%     63.99% # Type of FU issued
system.cpu1.iq.FU_type_0::SimdReduceCmp             0      0.00%     63.99% # Type of FU issued
system.cpu1.iq.FU_type_0::SimdFloatReduceAdd            0      0.00%     63.99% # Type of FU issued
system.cpu1.iq.FU_type_0::SimdFloatReduceCmp            0      0.00%     63.99% # Type of FU issued
system.cpu1.iq.FU_type_0::SimdAes                   0      0.00%     63.99% # Type of FU issued
system.cpu1.iq.FU_type_0::SimdAesMix                0      0.00%     63.99% # Type of FU issued
system.cpu1.iq.FU_type_0::SimdSha1Hash              0      0.00%     63.99% # Type of FU issued
system.cpu1.iq.FU_type_0::SimdSha1Hash2             0      0.00%     63.99% # Type of FU issued
system.cpu1.iq.FU_type_0::SimdSha256Hash            0      0.00%     63.99% # Type of FU issued
system.cpu1.iq.FU_type_0::SimdSha256Hash2            0      0.00%     63.99% # Type of FU issued
system.cpu1.iq.FU_type_0::SimdShaSigma2             0      0.00%     63.99% # Type of FU issued
system.cpu1.iq.FU_type_0::SimdShaSigma3             0      0.00%     63.99% # Type of FU issued
system.cpu1.iq.FU_type_0::SimdPredAlu               0      0.00%     63.99% # Type of FU issued
system.cpu1.iq.FU_type_0::MemRead            43769599     30.09%     94.09% # Type of FU issued
system.cpu1.iq.FU_type_0::MemWrite            8603706      5.91%    100.00% # Type of FU issued
system.cpu1.iq.FU_type_0::FloatMemRead              0      0.00%    100.00% # Type of FU issued
system.cpu1.iq.FU_type_0::FloatMemWrite            12      0.00%    100.00% # Type of FU issued
system.cpu1.iq.FU_type_0::IprAccess                 0      0.00%    100.00% # Type of FU issued
system.cpu1.iq.FU_type_0::InstPrefetch              0      0.00%    100.00% # Type of FU issued
system.cpu1.iq.FU_type_0::total             145460146                       # Type of FU issued
system.cpu1.iq.fp_alu_accesses                     14                       # Number of floating point alu accesses
system.cpu1.iq.fp_inst_queue_reads                 26                       # Number of floating instruction queue reads
system.cpu1.iq.fp_inst_queue_wakeup_accesses           12                       # Number of floating instruction queue wakeup accesses
system.cpu1.iq.fp_inst_queue_writes                12                       # Number of floating instruction queue writes
system.cpu1.iq.fu_busy_cnt                    4105949                       # FU busy when requested
system.cpu1.iq.fu_busy_rate                  0.028227                       # FU busy rate (busy events/executed inst)
system.cpu1.iq.fu_full::No_OpClass                  0      0.00%      0.00% # attempts to use FU when none available
system.cpu1.iq.fu_full::IntAlu                 700650     17.06%     17.06% # attempts to use FU when none available
system.cpu1.iq.fu_full::IntMult                     0      0.00%     17.06% # attempts to use FU when none available
system.cpu1.iq.fu_full::IntDiv                      0      0.00%     17.06% # attempts to use FU when none available
system.cpu1.iq.fu_full::FloatAdd                    0      0.00%     17.06% # attempts to use FU when none available
system.cpu1.iq.fu_full::FloatCmp                    0      0.00%     17.06% # attempts to use FU when none available
system.cpu1.iq.fu_full::FloatCvt                    0      0.00%     17.06% # attempts to use FU when none available
system.cpu1.iq.fu_full::FloatMult                   0      0.00%     17.06% # attempts to use FU when none available
system.cpu1.iq.fu_full::FloatMultAcc                0      0.00%     17.06% # attempts to use FU when none available
system.cpu1.iq.fu_full::FloatDiv                    0      0.00%     17.06% # attempts to use FU when none available
system.cpu1.iq.fu_full::FloatMisc                   0      0.00%     17.06% # attempts to use FU when none available
system.cpu1.iq.fu_full::FloatSqrt                   0      0.00%     17.06% # attempts to use FU when none available
system.cpu1.iq.fu_full::SimdAdd                     0      0.00%     17.06% # attempts to use FU when none available
system.cpu1.iq.fu_full::SimdAddAcc                  0      0.00%     17.06% # attempts to use FU when none available
system.cpu1.iq.fu_full::SimdAlu                     0      0.00%     17.06% # attempts to use FU when none available
system.cpu1.iq.fu_full::SimdCmp                     0      0.00%     17.06% # attempts to use FU when none available
system.cpu1.iq.fu_full::SimdCvt                     0      0.00%     17.06% # attempts to use FU when none available
system.cpu1.iq.fu_full::SimdMisc                    0      0.00%     17.06% # attempts to use FU when none available
system.cpu1.iq.fu_full::SimdMult                    0      0.00%     17.06% # attempts to use FU when none available
system.cpu1.iq.fu_full::SimdMultAcc                 0      0.00%     17.06% # attempts to use FU when none available
system.cpu1.iq.fu_full::SimdShift                   0      0.00%     17.06% # attempts to use FU when none available
system.cpu1.iq.fu_full::SimdShiftAcc                0      0.00%     17.06% # attempts to use FU when none available
system.cpu1.iq.fu_full::SimdDiv                     0      0.00%     17.06% # attempts to use FU when none available
system.cpu1.iq.fu_full::SimdSqrt                    0      0.00%     17.06% # attempts to use FU when none available
system.cpu1.iq.fu_full::SimdFloatAdd                0      0.00%     17.06% # attempts to use FU when none available
system.cpu1.iq.fu_full::SimdFloatAlu                0      0.00%     17.06% # attempts to use FU when none available
system.cpu1.iq.fu_full::SimdFloatCmp                0      0.00%     17.06% # attempts to use FU when none available
system.cpu1.iq.fu_full::SimdFloatCvt                0      0.00%     17.06% # attempts to use FU when none available
system.cpu1.iq.fu_full::SimdFloatDiv                0      0.00%     17.06% # attempts to use FU when none available
system.cpu1.iq.fu_full::SimdFloatMisc               0      0.00%     17.06% # attempts to use FU when none available
system.cpu1.iq.fu_full::SimdFloatMult               0      0.00%     17.06% # attempts to use FU when none available
system.cpu1.iq.fu_full::SimdFloatMultAcc            0      0.00%     17.06% # attempts to use FU when none available
system.cpu1.iq.fu_full::SimdFloatSqrt               0      0.00%     17.06% # attempts to use FU when none available
system.cpu1.iq.fu_full::SimdReduceAdd               0      0.00%     17.06% # attempts to use FU when none available
system.cpu1.iq.fu_full::SimdReduceAlu               0      0.00%     17.06% # attempts to use FU when none available
system.cpu1.iq.fu_full::SimdReduceCmp               0      0.00%     17.06% # attempts to use FU when none available
system.cpu1.iq.fu_full::SimdFloatReduceAdd            0      0.00%     17.06% # attempts to use FU when none available
system.cpu1.iq.fu_full::SimdFloatReduceCmp            0      0.00%     17.06% # attempts to use FU when none available
system.cpu1.iq.fu_full::SimdAes                     0      0.00%     17.06% # attempts to use FU when none available
system.cpu1.iq.fu_full::SimdAesMix                  0      0.00%     17.06% # attempts to use FU when none available
system.cpu1.iq.fu_full::SimdSha1Hash                0      0.00%     17.06% # attempts to use FU when none available
system.cpu1.iq.fu_full::SimdSha1Hash2               0      0.00%     17.06% # attempts to use FU when none available
system.cpu1.iq.fu_full::SimdSha256Hash              0      0.00%     17.06% # attempts to use FU when none available
system.cpu1.iq.fu_full::SimdSha256Hash2             0      0.00%     17.06% # attempts to use FU when none available
system.cpu1.iq.fu_full::SimdShaSigma2               0      0.00%     17.06% # attempts to use FU when none available
system.cpu1.iq.fu_full::SimdShaSigma3               0      0.00%     17.06% # attempts to use FU when none available
system.cpu1.iq.fu_full::SimdPredAlu                 0      0.00%     17.06% # attempts to use FU when none available
system.cpu1.iq.fu_full::MemRead               3049194     74.26%     91.33% # attempts to use FU when none available
[...]
system.cpu1.dcache.ReadReq_avg_miss_latency::.cpu1.data 84987.083776                       # average ReadReq miss latency
system.cpu1.dcache.ReadReq_avg_miss_latency::total 84987.083776                       # average ReadReq miss latency
system.cpu1.dcache.ReadReq_mshr_hits::.cpu1.data      8971120                       # number of ReadReq MSHR hits
system.cpu1.dcache.ReadReq_mshr_hits::total      8971120                       # number of ReadReq MSHR hits
system.cpu1.dcache.ReadReq_mshr_misses::.cpu1.data      8044882                       # number of ReadReq MSHR misses
system.cpu1.dcache.ReadReq_mshr_misses::total      8044882                       # number of ReadReq MSHR misses
system.cpu1.dcache.ReadReq_mshr_miss_latency::.cpu1.data 841605061000                       # number of ReadReq MSHR miss cycles
system.cpu1.dcache.ReadReq_mshr_miss_latency::total 841605061000                       # number of ReadReq MSHR miss cycles
system.cpu1.dcache.ReadReq_mshr_miss_rate::.cpu1.data     0.104225                       # mshr miss rate for ReadReq accesses
system.cpu1.dcache.ReadReq_mshr_miss_rate::total     0.104225                       # mshr miss rate for ReadReq accesses
system.cpu1.dcache.ReadReq_avg_mshr_miss_latency::.cpu1.data 104613.723483                       # average ReadReq mshr miss latency
system.cpu1.dcache.ReadReq_avg_mshr_miss_latency::total 104613.723483                       # average ReadReq mshr miss latency
system.cpu1.dcache.WriteReq_hits::.cpu1.data      2690114                       # number of WriteReq hits
system.cpu1.dcache.WriteReq_hits::total       2690114                       # number of WriteReq hits
system.cpu1.dcache.WriteReq_misses::.cpu1.data      1000952                       # number of WriteReq misses
system.cpu1.dcache.WriteReq_misses::total      1000952                       # number of WriteReq misses
system.cpu1.dcache.WriteReq_miss_latency::.cpu1.data  70072594685                       # number of WriteReq miss cycles
system.cpu1.dcache.WriteReq_miss_latency::total  70072594685                       # number of WriteReq miss cycles
system.cpu1.dcache.WriteReq_accesses::.cpu1.data      3691066                       # number of WriteReq accesses(hits+misses)
system.cpu1.dcache.WriteReq_accesses::total      3691066                       # number of WriteReq accesses(hits+misses)
system.cpu1.dcache.WriteReq_miss_rate::.cpu1.data     0.271182                       # miss rate for WriteReq accesses
system.cpu1.dcache.WriteReq_miss_rate::total     0.271182                       # miss rate for WriteReq accesses
system.cpu1.dcache.WriteReq_avg_miss_latency::.cpu1.data 70005.949022                       # average WriteReq miss latency
system.cpu1.dcache.WriteReq_avg_miss_latency::total 70005.949022                       # average WriteReq miss latency
system.cpu1.dcache.WriteReq_mshr_hits::.cpu1.data       894228                       # number of WriteReq MSHR hits
system.cpu1.dcache.WriteReq_mshr_hits::total       894228                       # number of WriteReq MSHR hits
system.cpu1.dcache.WriteReq_mshr_misses::.cpu1.data       106724                       # number of WriteReq MSHR misses
system.cpu1.dcache.WriteReq_mshr_misses::total       106724                       # number of WriteReq MSHR misses
system.cpu1.dcache.WriteReq_mshr_miss_latency::.cpu1.data   6666496783                       # number of WriteReq MSHR miss cycles
system.cpu1.dcache.WriteReq_mshr_miss_latency::total   6666496783                       # number of WriteReq MSHR miss cycles
system.cpu1.dcache.WriteReq_mshr_miss_rate::.cpu1.data     0.028914                       # mshr miss rate for WriteReq accesses
system.cpu1.dcache.WriteReq_mshr_miss_rate::total     0.028914                       # mshr miss rate for WriteReq accesses
system.cpu1.dcache.WriteReq_avg_mshr_miss_latency::.cpu1.data 62464.832493                       # average WriteReq mshr miss latency
system.cpu1.dcache.WriteReq_avg_mshr_miss_latency::total 62464.832493                       # average WriteReq mshr miss latency
system.cpu1.dcache.LoadLockedReq_hits::.cpu1.data          679                       # number of LoadLockedReq hits
system.cpu1.dcache.LoadLockedReq_hits::total          679                       # number of LoadLockedReq hits
system.cpu1.dcache.LoadLockedReq_misses::.cpu1.data          147                       # number of LoadLockedReq misses
system.cpu1.dcache.LoadLockedReq_misses::total          147                       # number of LoadLockedReq misses
system.cpu1.dcache.LoadLockedReq_miss_latency::.cpu1.data     13784000                       # number of LoadLockedReq miss cycles
system.cpu1.dcache.LoadLockedReq_miss_latency::total     13784000                       # number of LoadLockedReq miss cycles
system.cpu1.dcache.LoadLockedReq_accesses::.cpu1.data          826                       # number of LoadLockedReq accesses(hits+misses)
system.cpu1.dcache.LoadLockedReq_accesses::total          826                       # number of LoadLockedReq accesses(hits+misses)
system.cpu1.dcache.LoadLockedReq_miss_rate::.cpu1.data     0.177966                       # miss rate for LoadLockedReq accesses
system.cpu1.dcache.LoadLockedReq_miss_rate::total     0.177966                       # miss rate for LoadLockedReq accesses
system.cpu1.dcache.LoadLockedReq_avg_miss_latency::.cpu1.data 93768.707483                       # average LoadLockedReq miss latency
system.cpu1.dcache.LoadLockedReq_avg_miss_latency::total 93768.707483                       # average LoadLockedReq miss latency
system.cpu1.dcache.LoadLockedReq_mshr_hits::.cpu1.data           65                       # number of LoadLockedReq MSHR hits
system.cpu1.dcache.LoadLockedReq_mshr_hits::total           65                       # number of LoadLockedReq MSHR hits
system.cpu1.dcache.LoadLockedReq_mshr_misses::.cpu1.data           82                       # number of LoadLockedReq MSHR misses
system.cpu1.dcache.LoadLockedReq_mshr_misses::total           82                       # number of LoadLockedReq MSHR misses
system.cpu1.dcache.LoadLockedReq_mshr_miss_latency::.cpu1.data      7528000                       # number of LoadLockedReq MSHR miss cycles
system.cpu1.dcache.LoadLockedReq_mshr_miss_latency::total      7528000                       # number of LoadLockedReq MSHR miss cycles
system.cpu1.dcache.LoadLockedReq_mshr_miss_rate::.cpu1.data     0.099274                       # mshr miss rate for LoadLockedReq accesses
system.cpu1.dcache.LoadLockedReq_mshr_miss_rate::total     0.099274                       # mshr miss rate for LoadLockedReq accesses
system.cpu1.dcache.LoadLockedReq_avg_mshr_miss_latency::.cpu1.data 91804.878049                       # average LoadLockedReq mshr miss latency
system.cpu1.dcache.LoadLockedReq_avg_mshr_miss_latency::total 91804.878049                       # average LoadLockedReq mshr miss latency
system.cpu1.dcache.StoreCondReq_hits::.cpu1.data          581                       # number of StoreCondReq hits
system.cpu1.dcache.StoreCondReq_hits::total          581                       # number of StoreCondReq hits
system.cpu1.dcache.StoreCondReq_misses::.cpu1.data          219                       # number of StoreCondReq misses
system.cpu1.dcache.StoreCondReq_misses::total          219                       # number of StoreCondReq misses
system.cpu1.dcache.StoreCondReq_miss_latency::.cpu1.data      1833000                       # number of StoreCondReq miss cycles
system.cpu1.dcache.StoreCondReq_miss_latency::total      1833000                       # number of StoreCondReq miss cycles
system.cpu1.dcache.StoreCondReq_accesses::.cpu1.data          800                       # number of StoreCondReq accesses(hits+misses)
system.cpu1.dcache.StoreCondReq_accesses::total          800                       # number of StoreCondReq accesses(hits+misses)
system.cpu1.dcache.StoreCondReq_miss_rate::.cpu1.data     0.273750                       # miss rate for StoreCondReq accesses
system.cpu1.dcache.StoreCondReq_miss_rate::total     0.273750                       # miss rate for StoreCondReq accesses
system.cpu1.dcache.StoreCondReq_avg_miss_latency::.cpu1.data  8369.863014                       # average StoreCondReq miss latency
system.cpu1.dcache.StoreCondReq_avg_miss_latency::total  8369.863014                       # average StoreCondReq miss latency
system.cpu1.dcache.StoreCondReq_mshr_misses::.cpu1.data          219                       # number of StoreCondReq MSHR misses
system.cpu1.dcache.StoreCondReq_mshr_misses::total          219                       # number of StoreCondReq MSHR misses
system.cpu1.dcache.StoreCondReq_mshr_miss_latency::.cpu1.data      1614000                       # number of StoreCondReq MSHR miss cycles
system.cpu1.dcache.StoreCondReq_mshr_miss_latency::total      1614000                       # number of StoreCondReq MSHR miss cycles
system.cpu1.dcache.StoreCondReq_mshr_miss_rate::.cpu1.data     0.273750                       # mshr miss rate for StoreCondReq accesses
system.cpu1.dcache.StoreCondReq_mshr_miss_rate::total     0.273750                       # mshr miss rate for StoreCondReq accesses
system.cpu1.dcache.StoreCondReq_avg_mshr_miss_latency::.cpu1.data  7369.863014                       # average StoreCondReq mshr miss latency
system.cpu1.dcache.StoreCondReq_avg_mshr_miss_latency::total  7369.863014                       # average StoreCondReq mshr miss latency
system.cpu1.dcache.SwapReq_hits::.cpu1.data          314                       # number of SwapReq hits
system.cpu1.dcache.SwapReq_hits::total            314                       # number of SwapReq hits
system.cpu1.dcache.SwapReq_misses::.cpu1.data          147                       # number of SwapReq misses
system.cpu1.dcache.SwapReq_misses::total          147                       # number of SwapReq misses
system.cpu1.dcache.SwapReq_miss_latency::.cpu1.data       711500                       # number of SwapReq miss cycles
system.cpu1.dcache.SwapReq_miss_latency::total       711500                       # number of SwapReq miss cycles
system.cpu1.dcache.SwapReq_accesses::.cpu1.data          461                       # number of SwapReq accesses(hits+misses)
system.cpu1.dcache.SwapReq_accesses::total          461                       # number of SwapReq accesses(hits+misses)
system.cpu1.dcache.SwapReq_miss_rate::.cpu1.data     0.318872                       # miss rate for SwapReq accesses
system.cpu1.dcache.SwapReq_miss_rate::total     0.318872                       # miss rate for SwapReq accesses
system.cpu1.dcache.SwapReq_avg_miss_latency::.cpu1.data  4840.136054                       # average SwapReq miss latency
system.cpu1.dcache.SwapReq_avg_miss_latency::total  4840.136054                       # average SwapReq miss latency
system.cpu1.dcache.SwapReq_mshr_misses::.cpu1.data          147                       # number of SwapReq MSHR misses
system.cpu1.dcache.SwapReq_mshr_misses::total          147                       # number of SwapReq MSHR misses
system.cpu1.dcache.SwapReq_mshr_miss_latency::.cpu1.data       564500                       # number of SwapReq MSHR miss cycles
system.cpu1.dcache.SwapReq_mshr_miss_latency::total       564500                       # number of SwapReq MSHR miss cycles
system.cpu1.dcache.SwapReq_mshr_miss_rate::.cpu1.data     0.318872                       # mshr miss rate for SwapReq accesses
system.cpu1.dcache.SwapReq_mshr_miss_rate::total     0.318872                       # mshr miss rate for SwapReq accesses
system.cpu1.dcache.SwapReq_avg_mshr_miss_latency::.cpu1.data  3840.136054                       # average SwapReq mshr miss latency
system.cpu1.dcache.SwapReq_avg_mshr_miss_latency::total  3840.136054                       # average SwapReq mshr miss latency
system.cpu1.dcache.tags.pwrStateResidencyTicks::UNDEFINED 1116212653000                       # Cumulative time (in ticks) in various power states
system.cpu1.dcache.tags.tagsinuse           31.996483                       # Cycle average of tags in use
system.cpu1.dcache.tags.total_refs           71017861                       # Total number of references to valid blocks.
system.cpu1.dcache.tags.sampled_refs          8151550                       # Sample count of references to valid blocks.
system.cpu1.dcache.tags.avg_refs             8.712191                       # Average number of references to valid blocks.
system.cpu1.dcache.tags.warmup_cycle                0                       # Cycle when the warmup percentage was hit.
system.cpu1.dcache.tags.occ_blocks::.cpu1.data    31.996483                       # Average occupied blocks per requestor
system.cpu1.dcache.tags.occ_percent::.cpu1.data     0.999890                       # Average percentage of cache occupancy
system.cpu1.dcache.tags.occ_percent::total     0.999890                       # Average percentage of cache occupancy
system.cpu1.dcache.tags.occ_task_id_blocks::1024           29                       # Occupied blocks per task id
system.cpu1.dcache.tags.age_task_id_blocks_1024::1           29                       # Occupied blocks per task id
system.cpu1.dcache.tags.occ_task_id_percent::1024     0.906250                       # Percentage of cache occupancy per task id
system.cpu1.dcache.tags.tag_accesses        169913022                       # Number of tag accesses
system.cpu1.dcache.tags.data_accesses       169913022                       # Number of data accesses
system.cpu_clk_domain.clock                       500                       # Clock period in ticks
system.tol2bus.pwrStateResidencyTicks::UNDEFINED 1116212653000                       # Cumulative time (in ticks) in various power states
system.tol2bus.trans_dist::ReadResp          47739129                       # Transaction distribution
system.tol2bus.trans_dist::WritebackDirty      2473165                       # Transaction distribution
system.tol2bus.trans_dist::WritebackClean     46645000                       # Transaction distribution
system.tol2bus.trans_dist::CleanEvict       149688963                       # Transaction distribution
system.tol2bus.trans_dist::HardPFReq        118441070                       # Transaction distribution
system.tol2bus.trans_dist::HardPFResp               4                       # Transaction distribution
system.tol2bus.trans_dist::UpgradeReq            1408                       # Transaction distribution
system.tol2bus.trans_dist::SCUpgradeReq           450                       # Transaction distribution
system.tol2bus.trans_dist::UpgradeResp           1858                       # Transaction distribution
system.tol2bus.trans_dist::ReadExReq           211716                       # Transaction distribution
system.tol2bus.trans_dist::ReadExResp          211716                       # Transaction distribution
system.tol2bus.trans_dist::ReadCleanReq         18268                       # Transaction distribution
system.tol2bus.trans_dist::ReadSharedReq     47720861                       # Transaction distribution
system.tol2bus.pkt_count_system.cpu0.icache.mem_side::system.l2.cpu_side        46614                       # Packet count per connected master and slave (bytes)
system.tol2bus.pkt_count_system.cpu0.dcache.mem_side::system.l2.cpu_side    119343205                       # Packet count per connected master and slave (bytes)
system.tol2bus.pkt_count_system.cpu1.icache.mem_side::system.l2.cpu_side         8190                       # Packet count per connected master and slave (bytes)
system.tol2bus.pkt_count_system.cpu1.dcache.mem_side::system.l2.cpu_side     24451952                       # Packet count per connected master and slave (bytes)
system.tol2bus.pkt_count::total             143849961                       # Packet count per connected master and slave (bytes)
system.tol2bus.pkt_size_system.cpu0.icache.mem_side::system.l2.cpu_side      1988864                       # Cumulative packet size per connected master and slave (bytes)
system.tol2bus.pkt_size_system.cpu0.dcache.mem_side::system.l2.cpu_side   5091858112                       # Cumulative packet size per connected master and slave (bytes)
system.tol2bus.pkt_size_system.cpu1.icache.mem_side::system.l2.cpu_side       349440                       # Cumulative packet size per connected master and slave (bytes)
system.tol2bus.pkt_size_system.cpu1.dcache.mem_side::system.l2.cpu_side   1043188288                       # Cumulative packet size per connected master and slave (bytes)
system.tol2bus.pkt_size::total             6137384704                       # Cumulative packet size per connected master and slave (bytes)
system.tol2bus.snoops                       269303651                       # Total snoops (count)
system.tol2bus.snoopTraffic                  75032448                       # Total snoop traffic (bytes)
system.tol2bus.snoop_fanout::samples        317256656                       # Request fanout histogram
system.tol2bus.snoop_fanout::mean            0.134557                       # Request fanout histogram
system.tol2bus.snoop_fanout::stdev           0.344461                       # Request fanout histogram
system.tol2bus.snoop_fanout::underflows             0      0.00%      0.00% # Request fanout histogram
system.tol2bus.snoop_fanout::0              274916645     86.65%     86.65% # Request fanout histogram
system.tol2bus.snoop_fanout::1               41990767     13.24%     99.89% # Request fanout histogram
system.tol2bus.snoop_fanout::2                 349244      0.11%    100.00% # Request fanout histogram
system.tol2bus.snoop_fanout::3                      0      0.00%    100.00% # Request fanout histogram
system.tol2bus.snoop_fanout::4                      0      0.00%    100.00% # Request fanout histogram
system.tol2bus.snoop_fanout::5                      0      0.00%    100.00% # Request fanout histogram
system.tol2bus.snoop_fanout::6                      0      0.00%    100.00% # Request fanout histogram
system.tol2bus.snoop_fanout::7                      0      0.00%    100.00% # Request fanout histogram
system.tol2bus.snoop_fanout::8                      0      0.00%    100.00% # Request fanout histogram
system.tol2bus.snoop_fanout::overflows              0      0.00%    100.00% # Request fanout histogram
system.tol2bus.snoop_fanout::min_value              0                       # Request fanout histogram
system.tol2bus.snoop_fanout::max_value              2                       # Request fanout histogram
system.tol2bus.snoop_fanout::total          317256656                       # Request fanout histogram
system.tol2bus.reqLayer0.occupancy        95911731933                       # Layer occupancy (ticks)
system.tol2bus.reqLayer0.utilization              8.6                       # Layer utilization (%)
system.tol2bus.respLayer1.occupancy       59683486964                       # Layer occupancy (ticks)
system.tol2bus.respLayer1.utilization             5.3                       # Layer utilization (%)
system.tol2bus.respLayer0.occupancy          23316481                       # Layer occupancy (ticks)
system.tol2bus.respLayer0.utilization             0.0                       # Layer utilization (%)
system.tol2bus.respLayer3.occupancy       12234664251                       # Layer occupancy (ticks)
system.tol2bus.respLayer3.utilization             1.1                       # Layer utilization (%)
system.tol2bus.respLayer2.occupancy           4098992                       # Layer occupancy (ticks)
system.tol2bus.respLayer2.utilization             0.0                       # Layer utilization (%)
system.tol2bus.snoopLayer0.occupancy             6002                       # Layer occupancy (ticks)
system.tol2bus.snoopLayer0.utilization            0.0                       # Layer utilization (%)

---------- End Simulation Statistics   ----------
