
---------- Begin Simulation Statistics ----------
final_tick                               840119888500                       # Number of ticks from beginning of simulation (restored from checkpoints and never reset)
host_inst_rate                                  97090                       # Simulator instruction rate (inst/s)
host_mem_usage                                 739332                       # Number of bytes of host memory used
host_op_rate                                    97403                       # Simulator op (including micro ops) rate (op/s)
host_seconds                                 10490.28                       # Real time elapsed on the host
host_tick_rate                               80085564                       # Simulator tick rate (ticks/s)
sim_freq                                 1000000000000                       # Frequency of simulated ticks
sim_insts                                  1018504228                       # Number of instructions simulated
sim_ops                                    1021785804                       # Number of ops (including micro ops) simulated
sim_seconds                                  0.840120                       # Number of seconds simulated
sim_ticks                                840119888500                       # Number of ticks simulated
system.cpu0.branchPred.BTBCorrect                   0                       # Number of correct BTB predictions (this stat may not work properly.
system.cpu0.branchPred.BTBHitPct            86.882482                       # BTB Hit Percentage
system.cpu0.branchPred.BTBHits              118431578                       # Number of BTB hits
system.cpu0.branchPred.BTBLookups           136312379                       # Number of BTB lookups
system.cpu0.branchPred.RASInCorrect                 0                       # Number of incorrect RAS predictions.
system.cpu0.branchPred.condIncorrect         12044317                       # Number of conditional branches incorrect
system.cpu0.branchPred.condPredicted        186851266                       # Number of conditional branches predicted
system.cpu0.branchPred.indirectHits          17679226                       # Number of indirect target hits.
system.cpu0.branchPred.indirectLookups       17772974                       # Number of indirect predictor lookups.
system.cpu0.branchPred.indirectMisses           93748                       # Number of indirect misses.
system.cpu0.branchPred.lookups              239978737                       # Number of BP lookups
system.cpu0.branchPred.usedRAS                      0                       # Number of times the RAS was used to get a target.
system.cpu0.branchPredindirectMispredicted      1660226                       # Number of mispredicted indirect branches.
system.cpu0.commit.amos                        819882                       # Number of atomic instructions committed
system.cpu0.commit.branchMispredicts          7551981                       # The number of times a branch was mispredicted
system.cpu0.commit.branches                 221016071                       # Number of branches committed
system.cpu0.commit.bw_lim_events             27550370                       # number cycles where commit BW limit reached
system.cpu0.commit.commitNonSpecStalls        2466169                       # The number of times commit has been forced to stall to communicate backwards
system.cpu0.commit.commitSquashedInsts       66323404                       # The number of squashed insts skipped by commit
system.cpu0.commit.committedInsts           892415498                       # Number of instructions committed
system.cpu0.commit.committedOps             893237584                       # Number of ops (including micro ops) committed
system.cpu0.commit.committed_per_cycle::samples   1458693443                       # Number of insts commited each cycle
system.cpu0.commit.committed_per_cycle::mean     0.612355                       # Number of insts commited each cycle
system.cpu0.commit.committed_per_cycle::stdev     1.407091                       # Number of insts commited each cycle
system.cpu0.commit.committed_per_cycle::underflows            0      0.00%      0.00% # Number of insts commited each cycle
system.cpu0.commit.committed_per_cycle::0   1036853503     71.08%     71.08% # Number of insts commited each cycle
system.cpu0.commit.committed_per_cycle::1    252060712     17.28%     88.36% # Number of insts commited each cycle
system.cpu0.commit.committed_per_cycle::2     56418983      3.87%     92.23% # Number of insts commited each cycle
system.cpu0.commit.committed_per_cycle::3     56439745      3.87%     96.10% # Number of insts commited each cycle
system.cpu0.commit.committed_per_cycle::4     17332151      1.19%     97.29% # Number of insts commited each cycle
system.cpu0.commit.committed_per_cycle::5      6835581      0.47%     97.75% # Number of insts commited each cycle
system.cpu0.commit.committed_per_cycle::6      1306584      0.09%     97.84% # Number of insts commited each cycle
system.cpu0.commit.committed_per_cycle::7      3895814      0.27%     98.11% # Number of insts commited each cycle
system.cpu0.commit.committed_per_cycle::8     27550370      1.89%    100.00% # Number of insts commited each cycle
system.cpu0.commit.committed_per_cycle::overflows            0      0.00%    100.00% # Number of insts commited each cycle
system.cpu0.commit.committed_per_cycle::min_value            0                       # Number of insts commited each cycle
system.cpu0.commit.committed_per_cycle::max_value            8                       # Number of insts commited each cycle
system.cpu0.commit.committed_per_cycle::total   1458693443                       # Number of insts commited each cycle
system.cpu0.commit.fp_insts                        50                       # Number of committed floating point instructions.
system.cpu0.commit.function_calls            18341089                       # Number of function calls committed.
system.cpu0.commit.int_insts                863525542                       # Number of committed integer instructions.
system.cpu0.commit.loads                    280412322                       # Number of loads committed
system.cpu0.commit.membars                    1641838                       # Number of memory barriers committed
system.cpu0.commit.op_class_0::No_OpClass      1641844      0.18%      0.18% # Class of committed instruction
system.cpu0.commit.op_class_0::IntAlu       491126259     54.98%     55.17% # Class of committed instruction
system.cpu0.commit.op_class_0::IntMult        7836262      0.88%     56.04% # Class of committed instruction
system.cpu0.commit.op_class_0::IntDiv         1638713      0.18%     56.23% # Class of committed instruction
system.cpu0.commit.op_class_0::FloatAdd             0      0.00%     56.23% # Class of committed instruction
system.cpu0.commit.op_class_0::FloatCmp             4      0.00%     56.23% # Class of committed instruction
system.cpu0.commit.op_class_0::FloatCvt            12      0.00%     56.23% # Class of committed instruction
system.cpu0.commit.op_class_0::FloatMult            0      0.00%     56.23% # Class of committed instruction
system.cpu0.commit.op_class_0::FloatMultAcc            0      0.00%     56.23% # Class of committed instruction
system.cpu0.commit.op_class_0::FloatDiv             2      0.00%     56.23% # Class of committed instruction
system.cpu0.commit.op_class_0::FloatMisc            4      0.00%     56.23% # Class of committed instruction
system.cpu0.commit.op_class_0::FloatSqrt            0      0.00%     56.23% # Class of committed instruction
system.cpu0.commit.op_class_0::SimdAdd              0      0.00%     56.23% # Class of committed instruction
system.cpu0.commit.op_class_0::SimdAddAcc            0      0.00%     56.23% # Class of committed instruction
system.cpu0.commit.op_class_0::SimdAlu              0      0.00%     56.23% # Class of committed instruction
system.cpu0.commit.op_class_0::SimdCmp              0      0.00%     56.23% # Class of committed instruction
system.cpu0.commit.op_class_0::SimdCvt              0      0.00%     56.23% # Class of committed instruction
system.cpu0.commit.op_class_0::SimdMisc             0      0.00%     56.23% # Class of committed instruction
system.cpu0.commit.op_class_0::SimdMult             0      0.00%     56.23% # Class of committed instruction
system.cpu0.commit.op_class_0::SimdMultAcc            0      0.00%     56.23% # Class of committed instruction
system.cpu0.commit.op_class_0::SimdShift            0      0.00%     56.23% # Class of committed instruction
system.cpu0.commit.op_class_0::SimdShiftAcc            0      0.00%     56.23% # Class of committed instruction
system.cpu0.commit.op_class_0::SimdDiv              0      0.00%     56.23% # Class of committed instruction
system.cpu0.commit.op_class_0::SimdSqrt             0      0.00%     56.23% # Class of committed instruction
system.cpu0.commit.op_class_0::SimdFloatAdd            0      0.00%     56.23% # Class of committed instruction
system.cpu0.commit.op_class_0::SimdFloatAlu            0      0.00%     56.23% # Class of committed instruction
system.cpu0.commit.op_class_0::SimdFloatCmp            0      0.00%     56.23% # Class of committed instruction
system.cpu0.commit.op_class_0::SimdFloatCvt            0      0.00%     56.23% # Class of committed instruction
system.cpu0.commit.op_class_0::SimdFloatDiv            0      0.00%     56.23% # Class of committed instruction
system.cpu0.commit.op_class_0::SimdFloatMisc            0      0.00%     56.23% # Class of committed instruction
system.cpu0.commit.op_class_0::SimdFloatMult            0      0.00%     56.23% # Class of committed instruction
system.cpu0.commit.op_class_0::SimdFloatMultAcc            0      0.00%     56.23% # Class of committed instruction
system.cpu0.commit.op_class_0::SimdFloatSqrt            0      0.00%     56.23% # Class of committed instruction
system.cpu0.commit.op_class_0::SimdReduceAdd            0      0.00%     56.23% # Class of committed instruction
system.cpu0.commit.op_class_0::SimdReduceAlu            0      0.00%     56.23% # Class of committed instruction
system.cpu0.commit.op_class_0::SimdReduceCmp            0      0.00%     56.23% # Class of committed instruction
system.cpu0.commit.op_class_0::SimdFloatReduceAdd            0      0.00%     56.23% # Class of committed instruction
system.cpu0.commit.op_class_0::SimdFloatReduceCmp            0      0.00%     56.23% # Class of committed instruction
system.cpu0.commit.op_class_0::SimdAes              0      0.00%     56.23% # Class of committed instruction
system.cpu0.commit.op_class_0::SimdAesMix            0      0.00%     56.23% # Class of committed instruction
system.cpu0.commit.op_class_0::SimdSha1Hash            0      0.00%     56.23% # Class of committed instruction
system.cpu0.commit.op_class_0::SimdSha1Hash2            0      0.00%     56.23% # Class of committed instruction
system.cpu0.commit.op_class_0::SimdSha256Hash            0      0.00%     56.23% # Class of committed instruction
system.cpu0.commit.op_class_0::SimdSha256Hash2            0      0.00%     56.23% # Class of committed instruction
system.cpu0.commit.op_class_0::SimdShaSigma2            0      0.00%     56.23% # Class of committed instruction
system.cpu0.commit.op_class_0::SimdShaSigma3            0      0.00%     56.23% # Class of committed instruction
system.cpu0.commit.op_class_0::SimdPredAlu            0      0.00%     56.23% # Class of committed instruction
system.cpu0.commit.op_class_0::MemRead      281232196     31.48%     87.71% # Class of committed instruction
system.cpu0.commit.op_class_0::MemWrite     109762260     12.29%    100.00% # Class of committed instruction
system.cpu0.commit.op_class_0::FloatMemRead            8      0.00%    100.00% # Class of committed instruction
system.cpu0.commit.op_class_0::FloatMemWrite           20      0.00%    100.00% # Class of committed instruction
system.cpu0.commit.op_class_0::IprAccess            0      0.00%    100.00% # Class of committed instruction
system.cpu0.commit.op_class_0::InstPrefetch            0      0.00%    100.00% # Class of committed instruction
system.cpu0.commit.op_class_0::total        893237584                       # Class of committed instruction
system.cpu0.commit.refs                     390994484                       # Number of memory references committed
system.cpu0.commit.swp_count                        0                       # Number of s/w prefetches committed
system.cpu0.commit.vec_insts                        0                       # Number of committed Vector instructions.
system.cpu0.committedInsts                  892415498                       # Number of Instructions Simulated
system.cpu0.committedOps                    893237584                       # Number of Ops (including micro ops) Simulated
system.cpu0.cpi                              1.852667                       # CPI: Cycles Per Instruction
system.cpu0.cpi_total                        1.852667                       # CPI: Total CPI of All Threads
system.cpu0.decode.BlockedCycles            202926681                       # Number of cycles decode is blocked
system.cpu0.decode.BranchMispred              4495678                       # Number of times decode detected a branch misprediction
system.cpu0.decode.BranchResolved           116483296                       # Number of times decode resolved a branch
system.cpu0.decode.DecodedInsts             974658677                       # Number of instructions handled by decode
system.cpu0.decode.IdleCycles               577004040                       # Number of cycles decode is idle
system.cpu0.decode.RunCycles                681731243                       # Number of cycles decode is running
system.cpu0.decode.SquashCycles               7558111                       # Number of cycles decode is squashing
system.cpu0.decode.SquashedInsts             11401661                       # Number of squashed instructions handled by decode
system.cpu0.decode.UnblockCycles              3306849                       # Number of cycles decode is unblocking
system.cpu0.dtb.accesses                            0                       # DTB accesses
system.cpu0.dtb.hits                                0                       # DTB hits
system.cpu0.dtb.misses                              0                       # DTB misses
system.cpu0.dtb.read_accesses                       0                       # DTB read accesses
system.cpu0.dtb.read_hits                           0                       # DTB read hits
system.cpu0.dtb.read_misses                         0                       # DTB read misses
system.cpu0.dtb.write_accesses                      0                       # DTB write accesses
system.cpu0.dtb.write_hits                          0                       # DTB write hits
system.cpu0.dtb.write_misses                        0                       # DTB write misses
system.cpu0.fetch.Branches                  239978737                       # Number of branches that fetch encountered
system.cpu0.fetch.CacheLines                167080436                       # Number of cache lines fetched
system.cpu0.fetch.Cycles                    896237006                       # Number of cycles fetch has run and was not squashing or blocked
system.cpu0.fetch.IcacheSquashes              4262804                       # Number of outstanding Icache misses that were squashed
system.cpu0.fetch.IcacheWaitRetryStallCycles           92                       # Number of stall cycles due to full MSHR
system.cpu0.fetch.Insts                     998776568                       # Number of instructions fetch has processed
system.cpu0.fetch.MiscStallCycles                  24                       # Number of cycles fetch has spent waiting on interrupts, or bad addresses, or out of MSHRs
system.cpu0.fetch.PendingTrapStallCycles          102                       # Number of stall cycles due to pending traps
system.cpu0.fetch.SquashCycles               24100926                       # Number of cycles fetch has spent squashing
system.cpu0.fetch.branchRate                 0.145147                       # Number of branch fetches per cycle
system.cpu0.fetch.icacheStallCycles         564239237                       # Number of cycles fetch is stalled on an Icache miss
system.cpu0.fetch.predictedBranches         136110804                       # Number of branches that fetch has predicted taken
system.cpu0.fetch.rate                       0.604093                       # Number of inst fetches per cycle
system.cpu0.fetch.rateDist::samples        1472526924                       # Number of instructions fetched each cycle (Total)
system.cpu0.fetch.rateDist::mean             0.679253                       # Number of instructions fetched each cycle (Total)
system.cpu0.fetch.rateDist::stdev            0.916498                       # Number of instructions fetched each cycle (Total)
system.cpu0.fetch.rateDist::underflows              0      0.00%      0.00% # Number of instructions fetched each cycle (Total)
system.cpu0.fetch.rateDist::0               766815233     52.07%     52.07% # Number of instructions fetched each cycle (Total)
system.cpu0.fetch.rateDist::1               525719588     35.70%     87.78% # Number of instructions fetched each cycle (Total)
system.cpu0.fetch.rateDist::2                93732980      6.37%     94.14% # Number of instructions fetched each cycle (Total)
system.cpu0.fetch.rateDist::3                68150194      4.63%     98.77% # Number of instructions fetched each cycle (Total)
system.cpu0.fetch.rateDist::4                13563867      0.92%     99.69% # Number of instructions fetched each cycle (Total)
system.cpu0.fetch.rateDist::5                 2282566      0.16%     99.85% # Number of instructions fetched each cycle (Total)
system.cpu0.fetch.rateDist::6                  593013      0.04%     99.89% # Number of instructions fetched each cycle (Total)
system.cpu0.fetch.rateDist::7                     474      0.00%     99.89% # Number of instructions fetched each cycle (Total)
system.cpu0.fetch.rateDist::8                 1669009      0.11%    100.00% # Number of instructions fetched each cycle (Total)
system.cpu0.fetch.rateDist::overflows               0      0.00%    100.00% # Number of instructions fetched each cycle (Total)
system.cpu0.fetch.rateDist::min_value               0                       # Number of instructions fetched each cycle (Total)
system.cpu0.fetch.rateDist::max_value               8                       # Number of instructions fetched each cycle (Total)
system.cpu0.fetch.rateDist::total          1472526924                       # Number of instructions fetched each cycle (Total)
system.cpu0.fp_regfile_reads                       44                       # number of floating regfile reads
system.cpu0.fp_regfile_writes                      23                       # number of floating regfile writes
system.cpu0.idleCycles                      180821971                       # Total number of cycles that the CPU has spent unscheduled due to idling
system.cpu0.iew.branchMispredicts             7637633                       # Number of branch mispredicts detected at execute
system.cpu0.iew.exec_branches               230179146                       # Number of branches executed
system.cpu0.iew.exec_nop                            0                       # number of nop insts executed
system.cpu0.iew.exec_rate                    0.575953                       # Inst execution rate
system.cpu0.iew.exec_refs                   427916420                       # number of memory reference insts executed
system.cpu0.iew.exec_stores                 118634511                       # Number of stores executed
system.cpu0.iew.exec_swp                            0                       # number of swp insts executed
system.cpu0.iew.iewBlockCycles              171609342                       # Number of cycles IEW is blocking
system.cpu0.iew.iewDispLoadInsts            309577663                       # Number of dispatched load instructions
system.cpu0.iew.iewDispNonSpecInsts           1112763                       # Number of dispatched non-speculative instructions
system.cpu0.iew.iewDispSquashedInsts          3245136                       # Number of squashed instructions skipped by dispatch
system.cpu0.iew.iewDispStoreInsts           120153924                       # Number of dispatched store instructions
system.cpu0.iew.iewDispatchedInsts          959554008                       # Number of instructions dispatched to IQ
system.cpu0.iew.iewExecLoadInsts            309281909                       # Number of load instructions executed
system.cpu0.iew.iewExecSquashedInsts          3364742                       # Number of squashed instructions skipped in execute
system.cpu0.iew.iewExecutedInsts            952251864                       # Number of executed instructions
system.cpu0.iew.iewIQFullEvents                599410                       # Number of times the IQ has become full, causing a stall
system.cpu0.iew.iewIdleCycles                       0                       # Number of cycles IEW is idle
system.cpu0.iew.iewLSQFullEvents              1839006                       # Number of times the LSQ has become full, causing a stall
system.cpu0.iew.iewSquashCycles               7558111                       # Number of cycles IEW is squashing
system.cpu0.iew.iewUnblockCycles              3288803                       # Number of cycles IEW is unblocking
system.cpu0.iew.lsq.thread0.blockedLoads            0                       # Number of blocked loads due to partial load-store forwarding
system.cpu0.iew.lsq.thread0.cacheBlocked        66904                       # Number of times an access to memory failed due to the cache being blocked
system.cpu0.iew.lsq.thread0.forwLoads        15485224                       # Number of loads that had data forwarded from stores
system.cpu0.iew.lsq.thread0.ignoredResponses        15373                       # Number of memory responses ignored because the instruction is squashed
system.cpu0.iew.lsq.thread0.invAddrLoads            0                       # Number of loads ignored due to an invalid address
system.cpu0.iew.lsq.thread0.invAddrSwpfs            0                       # Number of software prefetches ignored due to an invalid address
system.cpu0.iew.lsq.thread0.memOrderViolation         6983                       # Number of memory ordering violations
system.cpu0.iew.lsq.thread0.rescheduledLoads      5095665                       # Number of loads that were rescheduled
system.cpu0.iew.lsq.thread0.squashedLoads     29165341                       # Number of loads squashed
system.cpu0.iew.lsq.thread0.squashedStores      9571762                       # Number of stores squashed
system.cpu0.iew.memOrderViolationEvents          6983                       # Number of memory order violations
system.cpu0.iew.predictedNotTakenIncorrect       888533                       # Number of branches that were predicted not taken incorrectly
system.cpu0.iew.predictedTakenIncorrect       6749100                       # Number of branches that were predicted taken incorrectly
system.cpu0.iew.wb_consumers                422039443                       # num instructions consuming a value
system.cpu0.iew.wb_count                    945007123                       # cumulative count of insts written-back
system.cpu0.iew.wb_fanout                    0.842216                       # average fanout of values written-back
system.cpu0.iew.wb_producers                355448540                       # num instructions producing a value
system.cpu0.iew.wb_rate                      0.571572                       # insts written-back per cycle
system.cpu0.iew.wb_sent                     945110485                       # cumulative count of insts sent to commit
system.cpu0.int_regfile_reads              1159041534                       # number of integer regfile reads
system.cpu0.int_regfile_writes              604747857                       # number of integer regfile writes
system.cpu0.ipc                              0.539762                       # IPC: Instructions Per Cycle
system.cpu0.ipc_total                        0.539762                       # IPC: Total IPC of All Threads
system.cpu0.iq.FU_type_0::No_OpClass          1643343      0.17%      0.17% # Type of FU issued
system.cpu0.iq.FU_type_0::IntAlu            514742790     53.86%     54.04% # Type of FU issued
system.cpu0.iq.FU_type_0::IntMult             7901647      0.83%     54.86% # Type of FU issued
system.cpu0.iq.FU_type_0::IntDiv              1639169      0.17%     55.04% # Type of FU issued
system.cpu0.iq.FU_type_0::FloatAdd                  0      0.00%     55.04% # Type of FU issued
system.cpu0.iq.FU_type_0::FloatCmp                  4      0.00%     55.04% # Type of FU issued
system.cpu0.iq.FU_type_0::FloatCvt                 12      0.00%     55.04% # Type of FU issued
system.cpu0.iq.FU_type_0::FloatMult                 0      0.00%     55.04% # Type of FU issued
system.cpu0.iq.FU_type_0::FloatMultAcc              0      0.00%     55.04% # Type of FU issued
system.cpu0.iq.FU_type_0::FloatDiv                  2      0.00%     55.04% # Type of FU issued
system.cpu0.iq.FU_type_0::FloatMisc                 4      0.00%     55.04% # Type of FU issued
system.cpu0.iq.FU_type_0::FloatSqrt                 0      0.00%     55.04% # Type of FU issued
system.cpu0.iq.FU_type_0::SimdAdd                   0      0.00%     55.04% # Type of FU issued
system.cpu0.iq.FU_type_0::SimdAddAcc                0      0.00%     55.04% # Type of FU issued
system.cpu0.iq.FU_type_0::SimdAlu                   0      0.00%     55.04% # Type of FU issued
system.cpu0.iq.FU_type_0::SimdCmp                   0      0.00%     55.04% # Type of FU issued
system.cpu0.iq.FU_type_0::SimdCvt                   0      0.00%     55.04% # Type of FU issued
system.cpu0.iq.FU_type_0::SimdMisc                  0      0.00%     55.04% # Type of FU issued
system.cpu0.iq.FU_type_0::SimdMult                  0      0.00%     55.04% # Type of FU issued
system.cpu0.iq.FU_type_0::SimdMultAcc               0      0.00%     55.04% # Type of FU issued
system.cpu0.iq.FU_type_0::SimdShift                 0      0.00%     55.04% # Type of FU issued
system.cpu0.iq.FU_type_0::SimdShiftAcc              0      0.00%     55.04% # Type of FU issued
system.cpu0.iq.FU_type_0::SimdDiv                   0      0.00%     55.04% # Type of FU issued
system.cpu0.iq.FU_type_0::SimdSqrt                  0      0.00%     55.04% # Type of FU issued
system.cpu0.iq.FU_type_0::SimdFloatAdd              0      0.00%     55.04% # Type of FU issued
system.cpu0.iq.FU_type_0::SimdFloatAlu              0      0.00%     55.04% # Type of FU issued
system.cpu0.iq.FU_type_0::SimdFloatCmp              0      0.00%     55.04% # Type of FU issued
system.cpu0.iq.FU_type_0::SimdFloatCvt              0      0.00%     55.04% # Type of FU issued
system.cpu0.iq.FU_type_0::SimdFloatDiv              0      0.00%     55.04% # Type of FU issued
system.cpu0.iq.FU_type_0::SimdFloatMisc             0      0.00%     55.04% # Type of FU issued
system.cpu0.iq.FU_type_0::SimdFloatMult             0      0.00%     55.04% # Type of FU issued
system.cpu0.iq.FU_type_0::SimdFloatMultAcc            0      0.00%     55.04% # Type of FU issued
system.cpu0.iq.FU_type_0::SimdFloatSqrt             0      0.00%     55.04% # Type of FU issued
system.cpu0.iq.FU_type_0::SimdReduceAdd             0      0.00%     55.04% # Type of FU issued
system.cpu0.iq.FU_type_0::SimdReduceAlu             0      0.00%     55.04% # Type of FU issued
system.cpu0.iq.FU_type_0::SimdReduceCmp             0      0.00%     55.04% # Type of FU issued
system.cpu0.iq.FU_type_0::SimdFloatReduceAdd            0      0.00%     55.04% # Type of FU issued
system.cpu0.iq.FU_type_0::SimdFloatReduceCmp            0      0.00%     55.04% # Type of FU issued
system.cpu0.iq.FU_type_0::SimdAes                   0      0.00%     55.04% # Type of FU issued
system.cpu0.iq.FU_type_0::SimdAesMix                0      0.00%     55.04% # Type of FU issued
system.cpu0.iq.FU_type_0::SimdSha1Hash              0      0.00%     55.04% # Type of FU issued
system.cpu0.iq.FU_type_0::SimdSha1Hash2             0      0.00%     55.04% # Type of FU issued
system.cpu0.iq.FU_type_0::SimdSha256Hash            0      0.00%     55.04% # Type of FU issued
system.cpu0.iq.FU_type_0::SimdSha256Hash2            0      0.00%     55.04% # Type of FU issued
system.cpu0.iq.FU_type_0::SimdShaSigma2             0      0.00%     55.04% # Type of FU issued
system.cpu0.iq.FU_type_0::SimdShaSigma3             0      0.00%     55.04% # Type of FU issued
system.cpu0.iq.FU_type_0::SimdPredAlu               0      0.00%     55.04% # Type of FU issued
system.cpu0.iq.FU_type_0::MemRead           311432320     32.59%     87.63% # Type of FU issued
system.cpu0.iq.FU_type_0::MemWrite          118257286     12.37%    100.00% # Type of FU issued
system.cpu0.iq.FU_type_0::FloatMemRead              9      0.00%    100.00% # Type of FU issued
system.cpu0.iq.FU_type_0::FloatMemWrite            20      0.00%    100.00% # Type of FU issued
system.cpu0.iq.FU_type_0::IprAccess                 0      0.00%    100.00% # Type of FU issued
system.cpu0.iq.FU_type_0::InstPrefetch              0      0.00%    100.00% # Type of FU issued
system.cpu0.iq.FU_type_0::total             955616606                       # Type of FU issued
system.cpu0.iq.fp_alu_accesses                     55                       # Number of floating point alu accesses
system.cpu0.iq.fp_inst_queue_reads                106                       # Number of floating instruction queue reads
system.cpu0.iq.fp_inst_queue_wakeup_accesses           51                       # Number of floating instruction queue wakeup accesses
system.cpu0.iq.fp_inst_queue_writes                52                       # Number of floating instruction queue writes
system.cpu0.iq.fu_busy_cnt                     997939                       # FU busy when requested
system.cpu0.iq.fu_busy_rate                  0.001044                       # FU busy rate (busy events/executed inst)
system.cpu0.iq.fu_full::No_OpClass                  0      0.00%      0.00% # attempts to use FU when none available
system.cpu0.iq.fu_full::IntAlu                 171386     17.17%     17.17% # attempts to use FU when none available
system.cpu0.iq.fu_full::IntMult                    14      0.00%     17.18% # attempts to use FU when none available
system.cpu0.iq.fu_full::IntDiv                      0      0.00%     17.18% # attempts to use FU when none available
system.cpu0.iq.fu_full::FloatAdd                    0      0.00%     17.18% # attempts to use FU when none available
system.cpu0.iq.fu_full::FloatCmp                    0      0.00%     17.18% # attempts to use FU when none available
system.cpu0.iq.fu_full::FloatCvt                    0      0.00%     17.18% # attempts to use FU when none available
system.cpu0.iq.fu_full::FloatMult                   0      0.00%     17.18% # attempts to use FU when none available
system.cpu0.iq.fu_full::FloatMultAcc                0      0.00%     17.18% # attempts to use FU when none available
system.cpu0.iq.fu_full::FloatDiv                    0      0.00%     17.18% # attempts to use FU when none available
system.cpu0.iq.fu_full::FloatMisc                   0      0.00%     17.18% # attempts to use FU when none available
system.cpu0.iq.fu_full::FloatSqrt                   0      0.00%     17.18% # attempts to use FU when none available
system.cpu0.iq.fu_full::SimdAdd                     0      0.00%     17.18% # attempts to use FU when none available
system.cpu0.iq.fu_full::SimdAddAcc                  0      0.00%     17.18% # attempts to use FU when none available
system.cpu0.iq.fu_full::SimdAlu                     0      0.00%     17.18% # attempts to use FU when none available
system.cpu0.iq.fu_full::SimdCmp                     0      0.00%     17.18% # attempts to use FU when none available
system.cpu0.iq.fu_full::SimdCvt                     0      0.00%     17.18% # attempts to use FU when none available
system.cpu0.iq.fu_full::SimdMisc                    0      0.00%     17.18% # attempts to use FU when none available
system.cpu0.iq.fu_full::SimdMult                    0      0.00%     17.18% # attempts to use FU when none available
system.cpu0.iq.fu_full::SimdMultAcc                 0      0.00%     17.18% # attempts to use FU when none available
system.cpu0.iq.fu_full::SimdShift                   0      0.00%     17.18% # attempts to use FU when none available
system.cpu0.iq.fu_full::SimdShiftAcc                0      0.00%     17.18% # attempts to use FU when none available
system.cpu0.iq.fu_full::SimdDiv                     0      0.00%     17.18% # attempts to use FU when none available
system.cpu0.iq.fu_full::SimdSqrt                    0      0.00%     17.18% # attempts to use FU when none available
system.cpu0.iq.fu_full::SimdFloatAdd                0      0.00%     17.18% # attempts to use FU when none available
system.cpu0.iq.fu_full::SimdFloatAlu                0      0.00%     17.18% # attempts to use FU when none available
system.cpu0.iq.fu_full::SimdFloatCmp                0      0.00%     17.18% # attempts to use FU when none available
system.cpu0.iq.fu_full::SimdFloatCvt                0      0.00%     17.18% # attempts to use FU when none available
system.cpu0.iq.fu_full::SimdFloatDiv                0      0.00%     17.18% # attempts to use FU when none available
system.cpu0.iq.fu_full::SimdFloatMisc               0      0.00%     17.18% # attempts to use FU when none available
system.cpu0.iq.fu_full::SimdFloatMult               0      0.00%     17.18% # attempts to use FU when none available
system.cpu0.iq.fu_full::SimdFloatMultAcc            0      0.00%     17.18% # attempts to use FU when none available
system.cpu0.iq.fu_full::SimdFloatSqrt               0      0.00%     17.18% # attempts to use FU when none available
system.cpu0.iq.fu_full::SimdReduceAdd               0      0.00%     17.18% # attempts to use FU when none available
system.cpu0.iq.fu_full::SimdReduceAlu               0      0.00%     17.18% # attempts to use FU when none available
system.cpu0.iq.fu_full::SimdReduceCmp               0      0.00%     17.18% # attempts to use FU when none available
system.cpu0.iq.fu_full::SimdFloatReduceAdd            0      0.00%     17.18% # attempts to use FU when none available
system.cpu0.iq.fu_full::SimdFloatReduceCmp            0      0.00%     17.18% # attempts to use FU when none available
system.cpu0.iq.fu_full::SimdAes                     0      0.00%     17.18% # attempts to use FU when none available
system.cpu0.iq.fu_full::SimdAesMix                  0      0.00%     17.18% # attempts to use FU when none available
system.cpu0.iq.fu_full::SimdSha1Hash                0      0.00%     17.18% # attempts to use FU when none available
system.cpu0.iq.fu_full::SimdSha1Hash2               0      0.00%     17.18% # attempts to use FU when none available
system.cpu0.iq.fu_full::SimdSha256Hash              0      0.00%     17.18% # attempts to use FU when none available
system.cpu0.iq.fu_full::SimdSha256Hash2             0      0.00%     17.18% # attempts to use FU when none available
system.cpu0.iq.fu_full::SimdShaSigma2               0      0.00%     17.18% # attempts to use FU when none available
system.cpu0.iq.fu_full::SimdShaSigma3               0      0.00%     17.18% # attempts to use FU when none available
system.cpu0.iq.fu_full::SimdPredAlu                 0      0.00%     17.18% # attempts to use FU when none available
system.cpu0.iq.fu_full::MemRead                711602     71.31%     88.48% # attempts to use FU when none available
system.cpu0.iq.fu_full::MemWrite               114933     11.52%    100.00% # attempts to use FU when none available
system.cpu0.iq.fu_full::FloatMemRead                0      0.00%    100.00% # attempts to use FU when none available
system.cpu0.iq.fu_full::FloatMemWrite               4      0.00%    100.00% # attempts to use FU when none available
system.cpu0.iq.fu_full::IprAccess                   0      0.00%    100.00% # attempts to use FU when none available
system.cpu0.iq.fu_full::InstPrefetch                0      0.00%    100.00% # attempts to use FU when none available
system.cpu0.iq.int_alu_accesses             954971147                       # Number of integer alu accesses
system.cpu0.iq.int_inst_queue_reads        3384821163                       # Number of integer instruction queue reads
system.cpu0.iq.int_inst_queue_wakeup_accesses    945007072                       # Number of integer instruction queue wakeup accesses
system.cpu0.iq.int_inst_queue_writes       1025876122                       # Number of integer instruction queue writes
system.cpu0.iq.iqInstsAdded                 956199134                       # Number of instructions added to the IQ (excludes non-spec)
system.cpu0.iq.iqInstsIssued                955616606                       # Number of instructions issued
system.cpu0.iq.iqNonSpecInstsAdded            3354874                       # Number of non-speculative instructions added to the IQ
system.cpu0.iq.iqSquashedInstsExamined       66316421                       # Number of squashed instructions iterated over during squash; mainly for profiling
system.cpu0.iq.iqSquashedInstsIssued            63194                       # Number of squashed instructions issued
system.cpu0.iq.iqSquashedNonSpecRemoved        888705                       # Number of squashed non-spec instructions that were removed
system.cpu0.iq.iqSquashedOperandsExamined     15231092                       # Number of squashed operands that are examined and possibly removed from graph
system.cpu0.iq.issued_per_cycle::samples   1472526924                       # Number of insts issued each cycle
system.cpu0.iq.issued_per_cycle::mean        0.648964                       # Number of insts issued each cycle
system.cpu0.iq.issued_per_cycle::stdev       0.855182                       # Number of insts issued each cycle
system.cpu0.iq.issued_per_cycle::underflows            0      0.00%      0.00% # Number of insts issued each cycle
system.cpu0.iq.issued_per_cycle::0          804284703     54.62%     54.62% # Number of insts issued each cycle
system.cpu0.iq.issued_per_cycle::1          450776343     30.61%     85.23% # Number of insts issued each cycle
system.cpu0.iq.issued_per_cycle::2          157998295     10.73%     95.96% # Number of insts issued each cycle
system.cpu0.iq.issued_per_cycle::3           50876082      3.46%     99.42% # Number of insts issued each cycle
system.cpu0.iq.issued_per_cycle::4            7567666      0.51%     99.93% # Number of insts issued each cycle
system.cpu0.iq.issued_per_cycle::5             449428      0.03%     99.96% # Number of insts issued each cycle
system.cpu0.iq.issued_per_cycle::6             400939      0.03%     99.99% # Number of insts issued each cycle
system.cpu0.iq.issued_per_cycle::7              95755      0.01%     99.99% # Number of insts issued each cycle
system.cpu0.iq.issued_per_cycle::8              77713      0.01%    100.00% # Number of insts issued each cycle
system.cpu0.iq.issued_per_cycle::overflows            0      0.00%    100.00% # Number of insts issued each cycle
system.cpu0.iq.issued_per_cycle::min_value            0                       # Number of insts issued each cycle
system.cpu0.iq.issued_per_cycle::max_value            8                       # Number of insts issued each cycle
system.cpu0.iq.issued_per_cycle::total     1472526924                       # Number of insts issued each cycle
system.cpu0.iq.rate                          0.577988                       # Inst issue rate
system.cpu0.iq.vec_alu_accesses                     0                       # Number of vector alu accesses
system.cpu0.iq.vec_inst_queue_reads                 0                       # Number of vector instruction queue reads
system.cpu0.iq.vec_inst_queue_wakeup_accesses            0                       # Number of vector instruction queue wakeup accesses
system.cpu0.iq.vec_inst_queue_writes                0                       # Number of vector instruction queue writes
system.cpu0.itb.accesses                            0                       # DTB accesses
system.cpu0.itb.hits                                0                       # DTB hits
system.cpu0.itb.misses                              0                       # DTB misses
system.cpu0.itb.read_accesses                       0                       # DTB read accesses
system.cpu0.itb.read_hits                           0                       # DTB read hits
system.cpu0.itb.read_misses                         0                       # DTB read misses
system.cpu0.itb.write_accesses                      0                       # DTB write accesses
system.cpu0.itb.write_hits                          0                       # DTB write hits
system.cpu0.itb.write_misses                        0                       # DTB write misses
system.cpu0.memDep0.conflictingLoads         11458722                       # Number of conflicting loads.
system.cpu0.memDep0.conflictingStores         1589405                       # Number of conflicting stores.
system.cpu0.memDep0.insertedLoads           309577663                       # Number of loads inserted to the mem dependence unit.
system.cpu0.memDep0.insertedStores          120153924                       # Number of stores inserted to the mem dependence unit.
system.cpu0.misc_regfile_reads                   1515                       # number of misc regfile reads
system.cpu0.misc_regfile_writes                    22                       # number of misc regfile writes
system.cpu0.numCycles                      1653348895                       # number of cpu cycles simulated
system.cpu0.numWorkItemsCompleted                   0                       # number of work items this cpu completed
system.cpu0.numWorkItemsStarted                     0                       # number of work items this cpu started
system.cpu0.quiesceCycles                    26890889                       # Total number of cycles that CPU has spent quiesced or waiting for an interrupt
system.cpu0.rename.BlockCycles              179440190                       # Number of cycles rename is blocking
system.cpu0.rename.CommittedMaps            569168580                       # Number of HB maps that are committed
system.cpu0.rename.IQFullEvents               4212984                       # Number of times rename has blocked due to IQ full
system.cpu0.rename.IdleCycles               585665972                       # Number of cycles rename is idle
system.cpu0.rename.LQFullEvents               7075480                       # Number of times rename has blocked due to LQ full
system.cpu0.rename.ROBFullEvents                 6299                       # Number of times rename has blocked due to ROB full
system.cpu0.rename.RenameLookups           1181021772                       # Number of register rename lookups that rename has made
system.cpu0.rename.RenamedInsts             969418064                       # Number of instructions processed by rename
system.cpu0.rename.RenamedOperands          622974097                       # Number of destination operands rename has renamed
system.cpu0.rename.RunCycles                675777625                       # Number of cycles rename is running
system.cpu0.rename.SQFullEvents              12342057                       # Number of times rename has blocked due to SQ full
system.cpu0.rename.SquashCycles               7558111                       # Number of cycles rename is squashing
system.cpu0.rename.UnblockCycles             23953591                       # Number of cycles rename is unblocking
system.cpu0.rename.UndoneMaps                53805513                       # Number of HB maps that are undone due to squashing
system.cpu0.rename.fp_rename_lookups               44                       # Number of floating rename lookups
system.cpu0.rename.int_rename_lookups      1181021728                       # Number of integer rename lookups
system.cpu0.rename.serializeStallCycles        131435                       # count of cycles rename stalled for serializing inst
system.cpu0.rename.serializingInsts              4565                       # count of serializing insts renamed
system.cpu0.rename.skidInsts                 10308065                       # count of insts added to the skid buffer
system.cpu0.rename.tempSerializingInsts          4551                       # count of temporary serializing insts renamed
system.cpu0.rob.rob_reads                  2390684899                       # The number of ROB reads
system.cpu0.rob.rob_writes                 1932959130                       # The number of ROB writes
system.cpu0.timesIdled                       18747706                       # Number of times that the entire CPU went into an idle state and unscheduled itself
system.cpu0.workload.numSyscalls                 1482                       # Number of system calls
system.cpu1.branchPred.BTBCorrect                   0                       # Number of correct BTB predictions (this stat may not work properly.
system.cpu1.branchPred.BTBHitPct            84.513243                       # BTB Hit Percentage
system.cpu1.branchPred.BTBHits               10854548                       # Number of BTB hits
system.cpu1.branchPred.BTBLookups            12843606                       # Number of BTB lookups
system.cpu1.branchPred.RASInCorrect                 0                       # Number of incorrect RAS predictions.
system.cpu1.branchPred.condIncorrect          2862864                       # Number of conditional branches incorrect
system.cpu1.branchPred.condPredicted         18006484                       # Number of conditional branches predicted
system.cpu1.branchPred.indirectHits            228634                       # Number of indirect target hits.
system.cpu1.branchPred.indirectLookups         339395                       # Number of indirect predictor lookups.
system.cpu1.branchPred.indirectMisses          110761                       # Number of indirect misses.
system.cpu1.branchPred.lookups               20490874                       # Number of BP lookups
system.cpu1.branchPred.usedRAS                      0                       # Number of times the RAS was used to get a target.
system.cpu1.branchPredindirectMispredicted        21415                       # Number of mispredicted indirect branches.
system.cpu1.commit.amos                        819647                       # Number of atomic instructions committed
system.cpu1.commit.branchMispredicts          1980680                       # The number of times a branch was mispredicted
system.cpu1.commit.branches                  10298936                       # Number of branches committed
system.cpu1.commit.bw_lim_events               739196                       # number cycles where commit BW limit reached
system.cpu1.commit.commitNonSpecStalls        2459622                       # The number of times commit has been forced to stall to communicate backwards
system.cpu1.commit.commitSquashedInsts       29306449                       # The number of squashed insts skipped by commit
system.cpu1.commit.committedInsts            41842822                       # Number of instructions committed
system.cpu1.commit.committedOps              42662665                       # Number of ops (including micro ops) committed
system.cpu1.commit.committed_per_cycle::samples    229250545                       # Number of insts commited each cycle
system.cpu1.commit.committed_per_cycle::mean     0.186096                       # Number of insts commited each cycle
system.cpu1.commit.committed_per_cycle::stdev     0.787644                       # Number of insts commited each cycle
system.cpu1.commit.committed_per_cycle::underflows            0      0.00%      0.00% # Number of insts commited each cycle
system.cpu1.commit.committed_per_cycle::0    209954150     91.58%     91.58% # Number of insts commited each cycle
system.cpu1.commit.committed_per_cycle::1      9336221      4.07%     95.66% # Number of insts commited each cycle
system.cpu1.commit.committed_per_cycle::2      3732546      1.63%     97.28% # Number of insts commited each cycle
system.cpu1.commit.committed_per_cycle::3      3573126      1.56%     98.84% # Number of insts commited each cycle
system.cpu1.commit.committed_per_cycle::4      1091291      0.48%     99.32% # Number of insts commited each cycle
system.cpu1.commit.committed_per_cycle::5       177654      0.08%     99.40% # Number of insts commited each cycle
system.cpu1.commit.committed_per_cycle::6       549555      0.24%     99.64% # Number of insts commited each cycle
system.cpu1.commit.committed_per_cycle::7        96806      0.04%     99.68% # Number of insts commited each cycle
system.cpu1.commit.committed_per_cycle::8       739196      0.32%    100.00% # Number of insts commited each cycle
system.cpu1.commit.committed_per_cycle::overflows            0      0.00%    100.00% # Number of insts commited each cycle
system.cpu1.commit.committed_per_cycle::min_value            0                       # Number of insts commited each cycle
system.cpu1.commit.committed_per_cycle::max_value            8                       # Number of insts commited each cycle
system.cpu1.commit.committed_per_cycle::total    229250545                       # Number of insts commited each cycle
system.cpu1.commit.fp_insts                        12                       # Number of committed floating point instructions.
system.cpu1.commit.function_calls              317298                       # Number of function calls committed.
system.cpu1.commit.int_insts                 40178089                       # Number of committed integer instructions.
system.cpu1.commit.loads                     11552121                       # Number of loads committed
system.cpu1.commit.membars                    1639373                       # Number of memory barriers committed
system.cpu1.commit.op_class_0::No_OpClass      1639373      3.84%      3.84% # Class of committed instruction
system.cpu1.commit.op_class_0::IntAlu        24986082     58.57%     62.41% # Class of committed instruction
system.cpu1.commit.op_class_0::IntMult             43      0.00%     62.41% # Class of committed instruction
system.cpu1.commit.op_class_0::IntDiv              86      0.00%     62.41% # Class of committed instruction
system.cpu1.commit.op_class_0::FloatAdd             0      0.00%     62.41% # Class of committed instruction
system.cpu1.commit.op_class_0::FloatCmp             0      0.00%     62.41% # Class of committed instruction
system.cpu1.commit.op_class_0::FloatCvt             0      0.00%     62.41% # Class of committed instruction
system.cpu1.commit.op_class_0::FloatMult            0      0.00%     62.41% # Class of committed instruction
system.cpu1.commit.op_class_0::FloatMultAcc            0      0.00%     62.41% # Class of committed instruction
system.cpu1.commit.op_class_0::FloatDiv             0      0.00%     62.41% # Class of committed instruction
system.cpu1.commit.op_class_0::FloatMisc            0      0.00%     62.41% # Class of committed instruction
system.cpu1.commit.op_class_0::FloatSqrt            0      0.00%     62.41% # Class of committed instruction
system.cpu1.commit.op_class_0::SimdAdd              0      0.00%     62.41% # Class of committed instruction
system.cpu1.commit.op_class_0::SimdAddAcc            0      0.00%     62.41% # Class of committed instruction
system.cpu1.commit.op_class_0::SimdAlu              0      0.00%     62.41% # Class of committed instruction
system.cpu1.commit.op_class_0::SimdCmp              0      0.00%     62.41% # Class of committed instruction
system.cpu1.commit.op_class_0::SimdCvt              0      0.00%     62.41% # Class of committed instruction
system.cpu1.commit.op_class_0::SimdMisc             0      0.00%     62.41% # Class of committed instruction
system.cpu1.commit.op_class_0::SimdMult             0      0.00%     62.41% # Class of committed instruction
system.cpu1.commit.op_class_0::SimdMultAcc            0      0.00%     62.41% # Class of committed instruction
system.cpu1.commit.op_class_0::SimdShift            0      0.00%     62.41% # Class of committed instruction
system.cpu1.commit.op_class_0::SimdShiftAcc            0      0.00%     62.41% # Class of committed instruction
system.cpu1.commit.op_class_0::SimdDiv              0      0.00%     62.41% # Class of committed instruction
system.cpu1.commit.op_class_0::SimdSqrt             0      0.00%     62.41% # Class of committed instruction
system.cpu1.commit.op_class_0::SimdFloatAdd            0      0.00%     62.41% # Class of committed instruction
system.cpu1.commit.op_class_0::SimdFloatAlu            0      0.00%     62.41% # Class of committed instruction
system.cpu1.commit.op_class_0::SimdFloatCmp            0      0.00%     62.41% # Class of committed instruction
system.cpu1.commit.op_class_0::SimdFloatCvt            0      0.00%     62.41% # Class of committed instruction
system.cpu1.commit.op_class_0::SimdFloatDiv            0      0.00%     62.41% # Class of committed instruction
system.cpu1.commit.op_class_0::SimdFloatMisc            0      0.00%     62.41% # Class of committed instruction
system.cpu1.commit.op_class_0::SimdFloatMult            0      0.00%     62.41% # Class of committed instruction
system.cpu1.commit.op_class_0::SimdFloatMultAcc            0      0.00%     62.41% # Class of committed instruction
system.cpu1.commit.op_class_0::SimdFloatSqrt            0      0.00%     62.41% # Class of committed instruction
system.cpu1.commit.op_class_0::SimdReduceAdd            0      0.00%     62.41% # Class of committed instruction
system.cpu1.commit.op_class_0::SimdReduceAlu            0      0.00%     62.41% # Class of committed instruction
system.cpu1.commit.op_class_0::SimdReduceCmp            0      0.00%     62.41% # Class of committed instruction
system.cpu1.commit.op_class_0::SimdFloatReduceAdd            0      0.00%     62.41% # Class of committed instruction
system.cpu1.commit.op_class_0::SimdFloatReduceCmp            0      0.00%     62.41% # Class of committed instruction
system.cpu1.commit.op_class_0::SimdAes              0      0.00%     62.41% # Class of committed instruction
system.cpu1.commit.op_class_0::SimdAesMix            0      0.00%     62.41% # Class of committed instruction
system.cpu1.commit.op_class_0::SimdSha1Hash            0      0.00%     62.41% # Class of committed instruction
system.cpu1.commit.op_class_0::SimdSha1Hash2            0      0.00%     62.41% # Class of committed instruction
system.cpu1.commit.op_class_0::SimdSha256Hash            0      0.00%     62.41% # Class of committed instruction
system.cpu1.commit.op_class_0::SimdSha256Hash2            0      0.00%     62.41% # Class of committed instruction
system.cpu1.commit.op_class_0::SimdShaSigma2            0      0.00%     62.41% # Class of committed instruction
system.cpu1.commit.op_class_0::SimdShaSigma3            0      0.00%     62.41% # Class of committed instruction
system.cpu1.commit.op_class_0::SimdPredAlu            0      0.00%     62.41% # Class of committed instruction
system.cpu1.commit.op_class_0::MemRead       12371768     29.00%     91.41% # Class of committed instruction
system.cpu1.commit.op_class_0::MemWrite       3665301      8.59%    100.00% # Class of committed instruction
system.cpu1.commit.op_class_0::FloatMemRead            0      0.00%    100.00% # Class of committed instruction
system.cpu1.commit.op_class_0::FloatMemWrite           12      0.00%    100.00% # Class of committed instruction
system.cpu1.commit.op_class_0::IprAccess            0      0.00%    100.00% # Class of committed instruction
system.cpu1.commit.op_class_0::InstPrefetch            0      0.00%    100.00% # Class of committed instruction
system.cpu1.commit.op_class_0::total         42662665                       # Class of committed instruction
system.cpu1.commit.refs                      16037081                       # Number of memory references committed
system.cpu1.commit.swp_count                        0                       # Number of s/w prefetches committed
system.cpu1.commit.vec_insts                        0                       # Number of committed Vector instructions.
system.cpu1.committedInsts                   41842822                       # Number of Instructions Simulated
system.cpu1.committedOps                     42662665                       # Number of Ops (including micro ops) Simulated
system.cpu1.cpi                              5.610579                       # CPI: Cycles Per Instruction
system.cpu1.cpi_total                        5.610579                       # CPI: Total CPI of All Threads
system.cpu1.decode.BlockedCycles            174501713                       # Number of cycles decode is blocked
system.cpu1.decode.BranchMispred               885600                       # Number of times decode detected a branch misprediction
system.cpu1.decode.BranchResolved             9959385                       # Number of times decode resolved a branch
system.cpu1.decode.DecodedInsts              81023291                       # Number of instructions handled by decode
system.cpu1.decode.IdleCycles                14914599                       # Number of cycles decode is idle
system.cpu1.decode.RunCycles                 40345050                       # Number of cycles decode is running
system.cpu1.decode.SquashCycles               1981792                       # Number of cycles decode is squashing
system.cpu1.decode.SquashedInsts               935701                       # Number of squashed instructions handled by decode
system.cpu1.decode.UnblockCycles              2369718                       # Number of cycles decode is unblocking
system.cpu1.dtb.accesses                            0                       # DTB accesses
system.cpu1.dtb.hits                                0                       # DTB hits
system.cpu1.dtb.misses                              0                       # DTB misses
system.cpu1.dtb.read_accesses                       0                       # DTB read accesses
system.cpu1.dtb.read_hits                           0                       # DTB read hits
system.cpu1.dtb.read_misses                         0                       # DTB read misses
system.cpu1.dtb.write_accesses                      0                       # DTB write accesses
system.cpu1.dtb.write_hits                          0                       # DTB write hits
system.cpu1.dtb.write_misses                        0                       # DTB write misses
system.cpu1.fetch.Branches                   20490874                       # Number of branches that fetch encountered
system.cpu1.fetch.CacheLines                 11875313                       # Number of cache lines fetched
system.cpu1.fetch.Cycles                    216694962                       # Number of cycles fetch has run and was not squashing or blocked
system.cpu1.fetch.IcacheSquashes               272843                       # Number of outstanding Icache misses that were squashed
system.cpu1.fetch.Insts                      91015297                       # Number of instructions fetch has processed
system.cpu1.fetch.MiscStallCycles                   1                       # Number of cycles fetch has spent waiting on interrupts, or bad addresses, or out of MSHRs
system.cpu1.fetch.SquashCycles                5727952                       # Number of cycles fetch has spent squashing
system.cpu1.fetch.branchRate                 0.087283                       # Number of branch fetches per cycle
system.cpu1.fetch.icacheStallCycles          14553933                       # Number of cycles fetch is stalled on an Icache miss
system.cpu1.fetch.predictedBranches          11083182                       # Number of branches that fetch has predicted taken
system.cpu1.fetch.rate                       0.387691                       # Number of inst fetches per cycle
system.cpu1.fetch.rateDist::samples         234112872                       # Number of instructions fetched each cycle (Total)
system.cpu1.fetch.rateDist::mean             0.400608                       # Number of instructions fetched each cycle (Total)
system.cpu1.fetch.rateDist::stdev            0.867176                       # Number of instructions fetched each cycle (Total)
system.cpu1.fetch.rateDist::underflows              0      0.00%      0.00% # Number of instructions fetched each cycle (Total)
system.cpu1.fetch.rateDist::0               176625615     75.44%     75.44% # Number of instructions fetched each cycle (Total)
system.cpu1.fetch.rateDist::1                35288870     15.07%     90.52% # Number of instructions fetched each cycle (Total)
system.cpu1.fetch.rateDist::2                14145909      6.04%     96.56% # Number of instructions fetched each cycle (Total)
system.cpu1.fetch.rateDist::3                 4468412      1.91%     98.47% # Number of instructions fetched each cycle (Total)
system.cpu1.fetch.rateDist::4                 2033367      0.87%     99.34% # Number of instructions fetched each cycle (Total)
system.cpu1.fetch.rateDist::5                  693870      0.30%     99.63% # Number of instructions fetched each cycle (Total)
system.cpu1.fetch.rateDist::6                  827910      0.35%     99.99% # Number of instructions fetched each cycle (Total)
system.cpu1.fetch.rateDist::7                      45      0.00%     99.99% # Number of instructions fetched each cycle (Total)
system.cpu1.fetch.rateDist::8                   28874      0.01%    100.00% # Number of instructions fetched each cycle (Total)
system.cpu1.fetch.rateDist::overflows               0      0.00%    100.00% # Number of instructions fetched each cycle (Total)
system.cpu1.fetch.rateDist::min_value               0                       # Number of instructions fetched each cycle (Total)
system.cpu1.fetch.rateDist::max_value               8                       # Number of instructions fetched each cycle (Total)
system.cpu1.fetch.rateDist::total           234112872                       # Number of instructions fetched each cycle (Total)
system.cpu1.fp_regfile_reads                       12                       # number of floating regfile reads
system.cpu1.idleCycles                         649573                       # Total number of cycles that the CPU has spent unscheduled due to idling
system.cpu1.iew.branchMispredicts             2061161                       # Number of branch mispredicts detected at execute
system.cpu1.iew.exec_branches                13563225                       # Number of branches executed
system.cpu1.iew.exec_nop                            0                       # number of nop insts executed
system.cpu1.iew.exec_rate                    0.222956                       # Inst execution rate
system.cpu1.iew.exec_refs                    18160488                       # number of memory reference insts executed
system.cpu1.iew.exec_stores                   5145894                       # Number of stores executed
system.cpu1.iew.exec_swp                            0                       # number of swp insts executed
system.cpu1.iew.iewBlockCycles              154178683                       # Number of cycles IEW is blocking
system.cpu1.iew.iewDispLoadInsts             19939158                       # Number of dispatched load instructions
system.cpu1.iew.iewDispNonSpecInsts           1965422                       # Number of dispatched non-speculative instructions
system.cpu1.iew.iewDispSquashedInsts          1803058                       # Number of squashed instructions skipped by dispatch
system.cpu1.iew.iewDispStoreInsts             7986129                       # Number of dispatched store instructions
system.cpu1.iew.iewDispatchedInsts           71961562                       # Number of instructions dispatched to IQ
system.cpu1.iew.iewExecLoadInsts             13014594                       # Number of load instructions executed
system.cpu1.iew.iewExecSquashedInsts          1504220                       # Number of squashed instructions skipped in execute
system.cpu1.iew.iewExecutedInsts             52341711                       # Number of executed instructions
system.cpu1.iew.iewIQFullEvents                895300                       # Number of times the IQ has become full, causing a stall
system.cpu1.iew.iewIdleCycles                       0                       # Number of cycles IEW is idle
system.cpu1.iew.iewLSQFullEvents               649330                       # Number of times the LSQ has become full, causing a stall
system.cpu1.iew.iewSquashCycles               1981792                       # Number of cycles IEW is squashing
system.cpu1.iew.iewUnblockCycles              2266590                       # Number of cycles IEW is unblocking
system.cpu1.iew.lsq.thread0.blockedLoads            0                       # Number of blocked loads due to partial load-store forwarding
system.cpu1.iew.lsq.thread0.cacheBlocked        38488                       # Number of times an access to memory failed due to the cache being blocked
system.cpu1.iew.lsq.thread0.forwLoads          224929                       # Number of loads that had data forwarded from stores
system.cpu1.iew.lsq.thread0.ignoredResponses        14845                       # Number of memory responses ignored because the instruction is squashed
system.cpu1.iew.lsq.thread0.invAddrLoads            0                       # Number of loads ignored due to an invalid address
system.cpu1.iew.lsq.thread0.invAddrSwpfs            0                       # Number of software prefetches ignored due to an invalid address
system.cpu1.iew.lsq.thread0.memOrderViolation         2255                       # Number of memory ordering violations
system.cpu1.iew.lsq.thread0.rescheduledLoads         2029                       # Number of loads that were rescheduled
system.cpu1.iew.lsq.thread0.squashedLoads      8387037                       # Number of loads squashed
system.cpu1.iew.lsq.thread0.squashedStores      3501169                       # Number of stores squashed
system.cpu1.iew.memOrderViolationEvents          2255                       # Number of memory order violations
system.cpu1.iew.predictedNotTakenIncorrect       654616                       # Number of branches that were predicted not taken incorrectly
system.cpu1.iew.predictedTakenIncorrect       1406545                       # Number of branches that were predicted taken incorrectly
system.cpu1.iew.wb_consumers                 25986815                       # num instructions consuming a value
system.cpu1.iew.wb_count                     51348371                       # cumulative count of insts written-back
system.cpu1.iew.wb_fanout                    0.785911                       # average fanout of values written-back
system.cpu1.iew.wb_producers                 20423324                       # num instructions producing a value
system.cpu1.iew.wb_rate                      0.218725                       # insts written-back per cycle
system.cpu1.iew.wb_sent                      51374931                       # cumulative count of insts sent to commit
system.cpu1.int_regfile_reads                67364206                       # number of integer regfile reads
system.cpu1.int_regfile_writes               32035674                       # number of integer regfile writes
system.cpu1.ipc                              0.178235                       # IPC: Instructions Per Cycle
system.cpu1.ipc_total                        0.178235                       # IPC: Total IPC of All Threads
system.cpu1.iq.FU_type_0::No_OpClass          1639575      3.04%      3.04% # Type of FU issued
system.cpu1.iq.FU_type_0::IntAlu             33549544     62.31%     65.35% # Type of FU issued
system.cpu1.iq.FU_type_0::IntMult                  57      0.00%     65.35% # Type of FU issued
system.cpu1.iq.FU_type_0::IntDiv                   88      0.00%     65.35% # Type of FU issued
system.cpu1.iq.FU_type_0::FloatAdd                  0      0.00%     65.35% # Type of FU issued
system.cpu1.iq.FU_type_0::FloatCmp                  0      0.00%     65.35% # Type of FU issued
system.cpu1.iq.FU_type_0::FloatCvt                  0      0.00%     65.35% # Type of FU issued
system.cpu1.iq.FU_type_0::FloatMult                 0      0.00%     65.35% # Type of FU issued
system.cpu1.iq.FU_type_0::FloatMultAcc              0      0.00%     65.35% # Type of FU issued
system.cpu1.iq.FU_type_0::FloatDiv                  0      0.00%     65.35% # Type of FU issued
system.cpu1.iq.FU_type_0::FloatMisc                 0      0.00%     65.35% # Type of FU issued
system.cpu1.iq.FU_type_0::FloatSqrt                 0      0.00%     65.35% # Type of FU issued
system.cpu1.iq.FU_type_0::SimdAdd                   0      0.00%     65.35% # Type of FU issued
system.cpu1.iq.FU_type_0::SimdAddAcc                0      0.00%     65.35% # Type of FU issued
system.cpu1.iq.FU_type_0::SimdAlu                   0      0.00%     65.35% # Type of FU issued
system.cpu1.iq.FU_type_0::SimdCmp                   0      0.00%     65.35% # Type of FU issued
system.cpu1.iq.FU_type_0::SimdCvt                   0      0.00%     65.35% # Type of FU issued
system.cpu1.iq.FU_type_0::SimdMisc                  0      0.00%     65.35% # Type of FU issued
system.cpu1.iq.FU_type_0::SimdMult                  0      0.00%     65.35% # Type of FU issued
system.cpu1.iq.FU_type_0::SimdMultAcc               0      0.00%     65.35% # Type of FU issued
system.cpu1.iq.FU_type_0::SimdShift                 0      0.00%     65.35% # Type of FU issued
system.cpu1.iq.FU_type_0::SimdShiftAcc              0      0.00%     65.35% # Type of FU issued
system.cpu1.iq.FU_type_0::SimdDiv                   0      0.00%     65.35% # Type of FU issued
system.cpu1.iq.FU_type_0::SimdSqrt                  0      0.00%     65.35% # Type of FU issued
system.cpu1.iq.FU_type_0::SimdFloatAdd              0      0.00%     65.35% # Type of FU issued
system.cpu1.iq.FU_type_0::SimdFloatAlu              0      0.00%     65.35% # Type of FU issued
system.cpu1.iq.FU_type_0::SimdFloatCmp              0      0.00%     65.35% # Type of FU issued
system.cpu1.iq.FU_type_0::SimdFloatCvt              0      0.00%     65.35% # Type of FU issued
system.cpu1.iq.FU_type_0::SimdFloatDiv              0      0.00%     65.35% # Type of FU issued
system.cpu1.iq.FU_type_0::SimdFloatMisc             0      0.00%     65.35% # Type of FU issued
system.cpu1.iq.FU_type_0::SimdFloatMult             0      0.00%     65.35% # Type of FU issued
system.cpu1.iq.FU_type_0::SimdFloatMultAcc            0      0.00%     65.35% # Type of FU issued
system.cpu1.iq.FU_type_0::SimdFloatSqrt             0      0.00%     65.35% # Type of FU issued
system.cpu1.iq.FU_type_0::SimdReduceAdd             0      0.00%     65.35% # Type of FU issued
system.cpu1.iq.FU_type_0::SimdReduceAlu             0      0.00%     65.35% # Type of FU issued
system.cpu1.iq.FU_type_0::SimdReduceCmp             0      0.00%     65.35% # Type of FU issued
system.cpu1.iq.FU_type_0::SimdFloatReduceAdd            0      0.00%     65.35% # Type of FU issued
system.cpu1.iq.FU_type_0::SimdFloatReduceCmp            0      0.00%     65.35% # Type of FU issued
system.cpu1.iq.FU_type_0::SimdAes                   0      0.00%     65.35% # Type of FU issued
system.cpu1.iq.FU_type_0::SimdAesMix                0      0.00%     65.35% # Type of FU issued
system.cpu1.iq.FU_type_0::SimdSha1Hash              0      0.00%     65.35% # Type of FU issued
system.cpu1.iq.FU_type_0::SimdSha1Hash2             0      0.00%     65.35% # Type of FU issued
system.cpu1.iq.FU_type_0::SimdSha256Hash            0      0.00%     65.35% # Type of FU issued
system.cpu1.iq.FU_type_0::SimdSha256Hash2            0      0.00%     65.35% # Type of FU issued
system.cpu1.iq.FU_type_0::SimdShaSigma2             0      0.00%     65.35% # Type of FU issued
system.cpu1.iq.FU_type_0::SimdShaSigma3             0      0.00%     65.35% # Type of FU issued
system.cpu1.iq.FU_type_0::SimdPredAlu               0      0.00%     65.35% # Type of FU issued
system.cpu1.iq.FU_type_0::MemRead            14159403     26.30%     91.65% # Type of FU issued
system.cpu1.iq.FU_type_0::MemWrite            4497252      8.35%    100.00% # Type of FU issued
system.cpu1.iq.FU_type_0::FloatMemRead              0      0.00%    100.00% # Type of FU issued
system.cpu1.iq.FU_type_0::FloatMemWrite            12      0.00%    100.00% # Type of FU issued
system.cpu1.iq.FU_type_0::IprAccess                 0      0.00%    100.00% # Type of FU issued
system.cpu1.iq.FU_type_0::InstPrefetch              0      0.00%    100.00% # Type of FU issued
system.cpu1.iq.FU_type_0::total              53845931                       # Type of FU issued
system.cpu1.iq.fp_alu_accesses                     16                       # Number of floating point alu accesses
system.cpu1.iq.fp_inst_queue_reads                 28                       # Number of floating instruction queue reads
system.cpu1.iq.fp_inst_queue_wakeup_accesses           12                       # Number of floating instruction queue wakeup accesses
system.cpu1.iq.fp_inst_queue_writes                12                       # Number of floating instruction queue writes
system.cpu1.iq.fu_busy_cnt                     925036                       # FU busy when requested
system.cpu1.iq.fu_busy_rate                  0.017179                       # FU busy rate (busy events/executed inst)
system.cpu1.iq.fu_full::No_OpClass                  0      0.00%      0.00% # attempts to use FU when none available
system.cpu1.iq.fu_full::IntAlu                 138707     14.99%     14.99% # attempts to use FU when none available
system.cpu1.iq.fu_full::IntMult                     0      0.00%     14.99% # attempts to use FU when none available
system.cpu1.iq.fu_full::IntDiv                      0      0.00%     14.99% # attempts to use FU when none available
system.cpu1.iq.fu_full::FloatAdd                    0      0.00%     14.99% # attempts to use FU when none available
system.cpu1.iq.fu_full::FloatCmp                    0      0.00%     14.99% # attempts to use FU when none available
system.cpu1.iq.fu_full::FloatCvt                    0      0.00%     14.99% # attempts to use FU when none available
system.cpu1.iq.fu_full::FloatMult                   0      0.00%     14.99% # attempts to use FU when none available
system.cpu1.iq.fu_full::FloatMultAcc                0      0.00%     14.99% # attempts to use FU when none available
system.cpu1.iq.fu_full::FloatDiv                    0      0.00%     14.99% # attempts to use FU when none available
system.cpu1.iq.fu_full::FloatMisc                   0      0.00%     14.99% # attempts to use FU when none available
system.cpu1.iq.fu_full::FloatSqrt                   0      0.00%     14.99% # attempts to use FU when none available
system.cpu1.iq.fu_full::SimdAdd                     0      0.00%     14.99% # attempts to use FU when none available
system.cpu1.iq.fu_full::SimdAddAcc                  0      0.00%     14.99% # attempts to use FU when none available
system.cpu1.iq.fu_full::SimdAlu                     0      0.00%     14.99% # attempts to use FU when none available
system.cpu1.iq.fu_full::SimdCmp                     0      0.00%     14.99% # attempts to use FU when none available
system.cpu1.iq.fu_full::SimdCvt                     0      0.00%     14.99% # attempts to use FU when none available
system.cpu1.iq.fu_full::SimdMisc                    0      0.00%     14.99% # attempts to use FU when none available
system.cpu1.iq.fu_full::SimdMult                    0      0.00%     14.99% # attempts to use FU when none available
system.cpu1.iq.fu_full::SimdMultAcc                 0      0.00%     14.99% # attempts to use FU when none available
system.cpu1.iq.fu_full::SimdShift                   0      0.00%     14.99% # attempts to use FU when none available
system.cpu1.iq.fu_full::SimdShiftAcc                0      0.00%     14.99% # attempts to use FU when none available
system.cpu1.iq.fu_full::SimdDiv                     0      0.00%     14.99% # attempts to use FU when none available
system.cpu1.iq.fu_full::SimdSqrt                    0      0.00%     14.99% # attempts to use FU when none available
system.cpu1.iq.fu_full::SimdFloatAdd                0      0.00%     14.99% # attempts to use FU when none available
system.cpu1.iq.fu_full::SimdFloatAlu                0      0.00%     14.99% # attempts to use FU when none available
system.cpu1.iq.fu_full::SimdFloatCmp                0      0.00%     14.99% # attempts to use FU when none available
system.cpu1.iq.fu_full::SimdFloatCvt                0      0.00%     14.99% # attempts to use FU when none available
system.cpu1.iq.fu_full::SimdFloatDiv                0      0.00%     14.99% # attempts to use FU when none available
system.cpu1.iq.fu_full::SimdFloatMisc               0      0.00%     14.99% # attempts to use FU when none available
system.cpu1.iq.fu_full::SimdFloatMult               0      0.00%     14.99% # attempts to use FU when none available
system.cpu1.iq.fu_full::SimdFloatMultAcc            0      0.00%     14.99% # attempts to use FU when none available
system.cpu1.iq.fu_full::SimdFloatSqrt               0      0.00%     14.99% # attempts to use FU when none available
system.cpu1.iq.fu_full::SimdReduceAdd               0      0.00%     14.99% # attempts to use FU when none available
system.cpu1.iq.fu_full::SimdReduceAlu               0      0.00%     14.99% # attempts to use FU when none available
system.cpu1.iq.fu_full::SimdReduceCmp               0      0.00%     14.99% # attempts to use FU when none available
system.cpu1.iq.fu_full::SimdFloatReduceAdd            0      0.00%     14.99% # attempts to use FU when none available
system.cpu1.iq.fu_full::SimdFloatReduceCmp            0      0.00%     14.99% # attempts to use FU when none available
system.cpu1.iq.fu_full::SimdAes                     0      0.00%     14.99% # attempts to use FU when none available
system.cpu1.iq.fu_full::SimdAesMix                  0      0.00%     14.99% # attempts to use FU when none available
system.cpu1.iq.fu_full::SimdSha1Hash                0      0.00%     14.99% # attempts to use FU when none available
system.cpu1.iq.fu_full::SimdSha1Hash2               0      0.00%     14.99% # attempts to use FU when none available
system.cpu1.iq.fu_full::SimdSha256Hash              0      0.00%     14.99% # attempts to use FU when none available
system.cpu1.iq.fu_full::SimdSha256Hash2             0      0.00%     14.99% # attempts to use FU when none available
system.cpu1.iq.fu_full::SimdShaSigma2               0      0.00%     14.99% # attempts to use FU when none available
system.cpu1.iq.fu_full::SimdShaSigma3               0      0.00%     14.99% # attempts to use FU when none available
system.cpu1.iq.fu_full::SimdPredAlu                 0      0.00%     14.99% # attempts to use FU when none available
system.cpu1.iq.fu_full::MemRead                683770     73.92%     88.91% # attempts to use FU when none available
system.cpu1.iq.fu_full::MemWrite               102555     11.09%    100.00% # attempts to use FU when none available
[...]
system.cpu1.dcache.WriteReq_mshr_miss_rate::.cpu1.data     0.049704                       # mshr miss rate for WriteReq accesses
system.cpu1.dcache.WriteReq_mshr_miss_rate::total     0.049704                       # mshr miss rate for WriteReq accesses
system.cpu1.dcache.WriteReq_avg_mshr_miss_latency::.cpu1.data 91378.998819                       # average WriteReq mshr miss latency
system.cpu1.dcache.WriteReq_avg_mshr_miss_latency::total 91378.998819                       # average WriteReq mshr miss latency
system.cpu1.dcache.LoadLockedReq_hits::.cpu1.data        37568                       # number of LoadLockedReq hits
system.cpu1.dcache.LoadLockedReq_hits::total        37568                       # number of LoadLockedReq hits
system.cpu1.dcache.LoadLockedReq_misses::.cpu1.data         1381                       # number of LoadLockedReq misses
system.cpu1.dcache.LoadLockedReq_misses::total         1381                       # number of LoadLockedReq misses
system.cpu1.dcache.LoadLockedReq_miss_latency::.cpu1.data     38265000                       # number of LoadLockedReq miss cycles
system.cpu1.dcache.LoadLockedReq_miss_latency::total     38265000                       # number of LoadLockedReq miss cycles
system.cpu1.dcache.LoadLockedReq_accesses::.cpu1.data        38949                       # number of LoadLockedReq accesses(hits+misses)
system.cpu1.dcache.LoadLockedReq_accesses::total        38949                       # number of LoadLockedReq accesses(hits+misses)
system.cpu1.dcache.LoadLockedReq_miss_rate::.cpu1.data     0.035457                       # miss rate for LoadLockedReq accesses
system.cpu1.dcache.LoadLockedReq_miss_rate::total     0.035457                       # miss rate for LoadLockedReq accesses
system.cpu1.dcache.LoadLockedReq_avg_miss_latency::.cpu1.data 27708.182476                       # average LoadLockedReq miss latency
system.cpu1.dcache.LoadLockedReq_avg_miss_latency::total 27708.182476                       # average LoadLockedReq miss latency
system.cpu1.dcache.LoadLockedReq_mshr_hits::.cpu1.data          493                       # number of LoadLockedReq MSHR hits
system.cpu1.dcache.LoadLockedReq_mshr_hits::total          493                       # number of LoadLockedReq MSHR hits
system.cpu1.dcache.LoadLockedReq_mshr_misses::.cpu1.data          888                       # number of LoadLockedReq MSHR misses
system.cpu1.dcache.LoadLockedReq_mshr_misses::total          888                       # number of LoadLockedReq MSHR misses
system.cpu1.dcache.LoadLockedReq_mshr_miss_latency::.cpu1.data     15939500                       # number of LoadLockedReq MSHR miss cycles
system.cpu1.dcache.LoadLockedReq_mshr_miss_latency::total     15939500                       # number of LoadLockedReq MSHR miss cycles
system.cpu1.dcache.LoadLockedReq_mshr_miss_rate::.cpu1.data     0.022799                       # mshr miss rate for LoadLockedReq accesses
system.cpu1.dcache.LoadLockedReq_mshr_miss_rate::total     0.022799                       # mshr miss rate for LoadLockedReq accesses
system.cpu1.dcache.LoadLockedReq_avg_mshr_miss_latency::.cpu1.data 17949.887387                       # average LoadLockedReq mshr miss latency
system.cpu1.dcache.LoadLockedReq_avg_mshr_miss_latency::total 17949.887387                       # average LoadLockedReq mshr miss latency
system.cpu1.dcache.StoreCondReq_hits::.cpu1.data        31823                       # number of StoreCondReq hits
system.cpu1.dcache.StoreCondReq_hits::total        31823                       # number of StoreCondReq hits
system.cpu1.dcache.StoreCondReq_misses::.cpu1.data         5833                       # number of StoreCondReq misses
system.cpu1.dcache.StoreCondReq_misses::total         5833                       # number of StoreCondReq misses
system.cpu1.dcache.StoreCondReq_miss_latency::.cpu1.data     54288000                       # number of StoreCondReq miss cycles
system.cpu1.dcache.StoreCondReq_miss_latency::total     54288000                       # number of StoreCondReq miss cycles
system.cpu1.dcache.StoreCondReq_accesses::.cpu1.data        37656                       # number of StoreCondReq accesses(hits+misses)
system.cpu1.dcache.StoreCondReq_accesses::total        37656                       # number of StoreCondReq accesses(hits+misses)
system.cpu1.dcache.StoreCondReq_miss_rate::.cpu1.data     0.154902                       # miss rate for StoreCondReq accesses
system.cpu1.dcache.StoreCondReq_miss_rate::total     0.154902                       # miss rate for StoreCondReq accesses
system.cpu1.dcache.StoreCondReq_avg_miss_latency::.cpu1.data  9307.046117                       # average StoreCondReq miss latency
system.cpu1.dcache.StoreCondReq_avg_miss_latency::total  9307.046117                       # average StoreCondReq miss latency
system.cpu1.dcache.StoreCondReq_mshr_misses::.cpu1.data         5802                       # number of StoreCondReq MSHR misses
system.cpu1.dcache.StoreCondReq_mshr_misses::total         5802                       # number of StoreCondReq MSHR misses
system.cpu1.dcache.StoreCondReq_mshr_miss_latency::.cpu1.data     48581000                       # number of StoreCondReq MSHR miss cycles
system.cpu1.dcache.StoreCondReq_mshr_miss_latency::total     48581000                       # number of StoreCondReq MSHR miss cycles
system.cpu1.dcache.StoreCondReq_mshr_miss_rate::.cpu1.data     0.154079                       # mshr miss rate for StoreCondReq accesses
system.cpu1.dcache.StoreCondReq_mshr_miss_rate::total     0.154079                       # mshr miss rate for StoreCondReq accesses
system.cpu1.dcache.StoreCondReq_avg_mshr_miss_latency::.cpu1.data  8373.147191                       # average StoreCondReq mshr miss latency
system.cpu1.dcache.StoreCondReq_avg_mshr_miss_latency::total  8373.147191                       # average StoreCondReq mshr miss latency
system.cpu1.dcache.StoreCondFailReq_miss_latency::.cpu1.data      2344500                       # number of StoreCondFailReq miss cycles
system.cpu1.dcache.StoreCondFailReq_miss_latency::total      2344500                       # number of StoreCondFailReq miss cycles
system.cpu1.dcache.StoreCondFailReq_avg_miss_latency::.cpu1.data          inf                       # average StoreCondFailReq miss latency
system.cpu1.dcache.StoreCondFailReq_avg_miss_latency::total          inf                       # average StoreCondFailReq miss latency
system.cpu1.dcache.StoreCondFailReq_mshr_miss_latency::.cpu1.data      2249500                       # number of StoreCondFailReq MSHR miss cycles
system.cpu1.dcache.StoreCondFailReq_mshr_miss_latency::total      2249500                       # number of StoreCondFailReq MSHR miss cycles
system.cpu1.dcache.StoreCondFailReq_avg_mshr_miss_latency::.cpu1.data          inf                       # average StoreCondFailReq mshr miss latency
system.cpu1.dcache.StoreCondFailReq_avg_mshr_miss_latency::total          inf                       # average StoreCondFailReq mshr miss latency
system.cpu1.dcache.SwapReq_hits::.cpu1.data         1061                       # number of SwapReq hits
system.cpu1.dcache.SwapReq_hits::total           1061                       # number of SwapReq hits
system.cpu1.dcache.SwapReq_misses::.cpu1.data         2171                       # number of SwapReq misses
system.cpu1.dcache.SwapReq_misses::total         2171                       # number of SwapReq misses
system.cpu1.dcache.SwapReq_miss_latency::.cpu1.data     27869000                       # number of SwapReq miss cycles
system.cpu1.dcache.SwapReq_miss_latency::total     27869000                       # number of SwapReq miss cycles
system.cpu1.dcache.SwapReq_accesses::.cpu1.data         3232                       # number of SwapReq accesses(hits+misses)
system.cpu1.dcache.SwapReq_accesses::total         3232                       # number of SwapReq accesses(hits+misses)
system.cpu1.dcache.SwapReq_miss_rate::.cpu1.data     0.671720                       # miss rate for SwapReq accesses
system.cpu1.dcache.SwapReq_miss_rate::total     0.671720                       # miss rate for SwapReq accesses
system.cpu1.dcache.SwapReq_avg_miss_latency::.cpu1.data 12836.941502                       # average SwapReq miss latency
system.cpu1.dcache.SwapReq_avg_miss_latency::total 12836.941502                       # average SwapReq miss latency
system.cpu1.dcache.SwapReq_mshr_hits::.cpu1.data            1                       # number of SwapReq MSHR hits
system.cpu1.dcache.SwapReq_mshr_hits::total            1                       # number of SwapReq MSHR hits
system.cpu1.dcache.SwapReq_mshr_misses::.cpu1.data         2170                       # number of SwapReq MSHR misses
system.cpu1.dcache.SwapReq_mshr_misses::total         2170                       # number of SwapReq MSHR misses
system.cpu1.dcache.SwapReq_mshr_miss_latency::.cpu1.data     25698000                       # number of SwapReq MSHR miss cycles
system.cpu1.dcache.SwapReq_mshr_miss_latency::total     25698000                       # number of SwapReq MSHR miss cycles
system.cpu1.dcache.SwapReq_mshr_miss_rate::.cpu1.data     0.671411                       # mshr miss rate for SwapReq accesses
system.cpu1.dcache.SwapReq_mshr_miss_rate::total     0.671411                       # mshr miss rate for SwapReq accesses
system.cpu1.dcache.SwapReq_avg_mshr_miss_latency::.cpu1.data 11842.396313                       # average SwapReq mshr miss latency
system.cpu1.dcache.SwapReq_avg_mshr_miss_latency::total 11842.396313                       # average SwapReq mshr miss latency
system.cpu1.dcache.tags.pwrStateResidencyTicks::UNDEFINED  39947057500                       # Cumulative time (in ticks) in various power states
system.cpu1.dcache.tags.tagsinuse           30.664283                       # Cycle average of tags in use
system.cpu1.dcache.tags.total_refs            5213083                       # Total number of references to valid blocks.
system.cpu1.dcache.tags.sampled_refs          1031095                       # Sample count of references to valid blocks.
system.cpu1.dcache.tags.avg_refs             5.055871                       # Average number of references to valid blocks.
system.cpu1.dcache.tags.warmup_cycle                0                       # Cycle when the warmup percentage was hit.
system.cpu1.dcache.tags.occ_blocks::.cpu1.data    30.664283                       # Average occupied blocks per requestor
system.cpu1.dcache.tags.occ_percent::.cpu1.data     0.958259                       # Average percentage of cache occupancy
system.cpu1.dcache.tags.occ_percent::total     0.958259                       # Average percentage of cache occupancy
system.cpu1.dcache.tags.occ_task_id_blocks::1024           28                       # Occupied blocks per task id
system.cpu1.dcache.tags.age_task_id_blocks_1024::1           28                       # Occupied blocks per task id
system.cpu1.dcache.tags.occ_task_id_percent::1024     0.875000                       # Percentage of cache occupancy per task id
system.cpu1.dcache.tags.tag_accesses         14685913                       # Number of tag accesses
system.cpu1.dcache.tags.data_accesses        14685913                       # Number of data accesses
system.cpu_clk_domain.clock                       500                       # Clock period in ticks
system.tol2bus.pwrStateResidencyTicks::UNDEFINED  39947057500                       # Cumulative time (in ticks) in various power states
system.tol2bus.trans_dist::ReadResp           4214759                       # Transaction distribution
system.tol2bus.trans_dist::ReadRespWithInvalidate           16                       # Transaction distribution
system.tol2bus.trans_dist::WritebackDirty       701431                       # Transaction distribution
system.tol2bus.trans_dist::WritebackClean      3900471                       # Transaction distribution
system.tol2bus.trans_dist::CleanEvict         4218853                       # Transaction distribution
system.tol2bus.trans_dist::UpgradeReq            8819                       # Transaction distribution
system.tol2bus.trans_dist::SCUpgradeReq         23434                       # Transaction distribution
system.tol2bus.trans_dist::UpgradeResp          32253                       # Transaction distribution
system.tol2bus.trans_dist::SCUpgradeFailReq          374                       # Transaction distribution
system.tol2bus.trans_dist::UpgradeFailResp          374                       # Transaction distribution
system.tol2bus.trans_dist::ReadExReq           114710                       # Transaction distribution
system.tol2bus.trans_dist::ReadExResp          114711                       # Transaction distribution
system.tol2bus.trans_dist::ReadCleanReq        183792                       # Transaction distribution
system.tol2bus.trans_dist::ReadSharedReq      4030983                       # Transaction distribution
system.tol2bus.trans_dist::InvalidateReq           93                       # Transaction distribution
system.tol2bus.trans_dist::InvalidateResp           93                       # Transaction distribution
system.tol2bus.pkt_count_system.cpu0.icache.mem_side::system.l2.cpu_side       327849                       # Packet count per connected master and slave (bytes)
system.tol2bus.pkt_count_system.cpu0.dcache.mem_side::system.l2.cpu_side      3148918                       # Packet count per connected master and slave (bytes)
system.tol2bus.pkt_count_system.cpu1.icache.mem_side::system.l2.cpu_side        73962                       # Packet count per connected master and slave (bytes)
system.tol2bus.pkt_count_system.cpu1.dcache.mem_side::system.l2.cpu_side      3079217                       # Packet count per connected master and slave (bytes)
system.tol2bus.pkt_count_system.cpu2.icache.mem_side::system.l2.cpu_side        75066                       # Packet count per connected master and slave (bytes)
system.tol2bus.pkt_count_system.cpu2.dcache.mem_side::system.l2.cpu_side      3134446                       # Packet count per connected master and slave (bytes)
system.tol2bus.pkt_count_system.cpu3.icache.mem_side::system.l2.cpu_side        74499                       # Packet count per connected master and slave (bytes)
system.tol2bus.pkt_count_system.cpu3.dcache.mem_side::system.l2.cpu_side      3025251                       # Packet count per connected master and slave (bytes)
system.tol2bus.pkt_count::total              12939208                       # Packet count per connected master and slave (bytes)
system.tol2bus.pkt_size_system.cpu0.icache.mem_side::system.l2.cpu_side     13988224                       # Cumulative packet size per connected master and slave (bytes)
system.tol2bus.pkt_size_system.cpu0.dcache.mem_side::system.l2.cpu_side    133479488                       # Cumulative packet size per connected master and slave (bytes)
system.tol2bus.pkt_size_system.cpu1.icache.mem_side::system.l2.cpu_side      3155712                       # Cumulative packet size per connected master and slave (bytes)
system.tol2bus.pkt_size_system.cpu1.dcache.mem_side::system.l2.cpu_side    130480768                       # Cumulative packet size per connected master and slave (bytes)
system.tol2bus.pkt_size_system.cpu2.icache.mem_side::system.l2.cpu_side      3202816                       # Cumulative packet size per connected master and slave (bytes)
system.tol2bus.pkt_size_system.cpu2.dcache.mem_side::system.l2.cpu_side    132836800                       # Cumulative packet size per connected master and slave (bytes)
system.tol2bus.pkt_size_system.cpu3.icache.mem_side::system.l2.cpu_side      3178624                       # Cumulative packet size per connected master and slave (bytes)
system.tol2bus.pkt_size_system.cpu3.dcache.mem_side::system.l2.cpu_side    128185344                       # Cumulative packet size per connected master and slave (bytes)
system.tol2bus.pkt_size::total              548507776                       # Cumulative packet size per connected master and slave (bytes)
system.tol2bus.snoops                         4605958                       # Total snoops (count)
system.tol2bus.snoopTraffic                  23124992                       # Total snoop traffic (bytes)
system.tol2bus.snoop_fanout::samples          8896245                       # Request fanout histogram
system.tol2bus.snoop_fanout::mean            0.675593                       # Request fanout histogram
system.tol2bus.snoop_fanout::stdev           0.874971                       # Request fanout histogram
system.tol2bus.snoop_fanout::underflows             0      0.00%      0.00% # Request fanout histogram
system.tol2bus.snoop_fanout::0                4704261     52.88%     52.88% # Request fanout histogram
system.tol2bus.snoop_fanout::1                2923437     32.86%     85.74% # Request fanout histogram
system.tol2bus.snoop_fanout::2                 781357      8.78%     94.52% # Request fanout histogram
system.tol2bus.snoop_fanout::3                 424671      4.77%     99.30% # Request fanout histogram
system.tol2bus.snoop_fanout::4                  62519      0.70%    100.00% # Request fanout histogram
system.tol2bus.snoop_fanout::5                      0      0.00%    100.00% # Request fanout histogram
system.tol2bus.snoop_fanout::6                      0      0.00%    100.00% # Request fanout histogram
system.tol2bus.snoop_fanout::7                      0      0.00%    100.00% # Request fanout histogram
system.tol2bus.snoop_fanout::8                      0      0.00%    100.00% # Request fanout histogram
system.tol2bus.snoop_fanout::overflows              0      0.00%    100.00% # Request fanout histogram
system.tol2bus.snoop_fanout::min_value              0                       # Request fanout histogram
system.tol2bus.snoop_fanout::max_value              4                       # Request fanout histogram
system.tol2bus.snoop_fanout::total            8896245                       # Request fanout histogram
system.tol2bus.reqLayer0.occupancy         8611360188                       # Layer occupancy (ticks)
system.tol2bus.reqLayer0.utilization             21.6                       # Layer utilization (%)
system.tol2bus.respLayer5.occupancy        1597339730                       # Layer occupancy (ticks)
system.tol2bus.respLayer5.utilization             4.0                       # Layer utilization (%)
system.tol2bus.respLayer4.occupancy          40093486                       # Layer occupancy (ticks)
system.tol2bus.respLayer4.utilization             0.1                       # Layer utilization (%)
system.tol2bus.respLayer7.occupancy        1542625583                       # Layer occupancy (ticks)
system.tol2bus.respLayer7.utilization             3.9                       # Layer utilization (%)
system.tol2bus.respLayer6.occupancy          39800559                       # Layer occupancy (ticks)
system.tol2bus.respLayer6.utilization             0.1                       # Layer utilization (%)
system.tol2bus.respLayer1.occupancy        1602085032                       # Layer occupancy (ticks)
system.tol2bus.respLayer1.utilization             4.0                       # Layer utilization (%)
system.tol2bus.respLayer0.occupancy         164393849                       # Layer occupancy (ticks)
system.tol2bus.respLayer0.utilization             0.4                       # Layer utilization (%)
system.tol2bus.respLayer3.occupancy        1569798910                       # Layer occupancy (ticks)
system.tol2bus.respLayer3.utilization             3.9                       # Layer utilization (%)
system.tol2bus.respLayer2.occupancy          39481607                       # Layer occupancy (ticks)
system.tol2bus.respLayer2.utilization             0.1                       # Layer utilization (%)

---------- End Simulation Statistics   ----------
