
---------- Begin Simulation Statistics ----------
final_tick                               955640466500                       # Number of ticks from beginning of simulation (restored from checkpoints and never reset)
host_inst_rate                                  61578                       # Simulator instruction rate (inst/s)
host_mem_usage                                 701848                       # Number of bytes of host memory used
host_op_rate                                    61780                       # Simulator op (including micro ops) rate (op/s)
host_seconds                                 17957.97                       # Real time elapsed on the host
host_tick_rate                               53215386                       # Simulator tick rate (ticks/s)
sim_freq                                 1000000000000                       # Frequency of simulated ticks
sim_insts                                  1105824496                       # Number of instructions simulated
sim_ops                                    1109449854                       # Number of ops (including micro ops) simulated
sim_seconds                                  0.955640                       # Number of seconds simulated
sim_ticks                                955640466500                       # Number of ticks simulated
system.cpu0.branchPred.BTBCorrect                   0                       # Number of correct BTB predictions (this stat may not work properly.
system.cpu0.branchPred.BTBHitPct            87.120952                       # BTB Hit Percentage
system.cpu0.branchPred.BTBHits              150597737                       # Number of BTB hits
system.cpu0.branchPred.BTBLookups           172860527                       # Number of BTB lookups
system.cpu0.branchPred.RASInCorrect                 0                       # Number of incorrect RAS predictions.
system.cpu0.branchPred.condIncorrect         19755623                       # Number of conditional branches incorrect
system.cpu0.branchPred.condPredicted        229918782                       # Number of conditional branches predicted
system.cpu0.branchPred.indirectHits          18879490                       # Number of indirect target hits.
system.cpu0.branchPred.indirectLookups       19169079                       # Number of indirect predictor lookups.
system.cpu0.branchPred.indirectMisses          289589                       # Number of indirect misses.
system.cpu0.branchPred.lookups              294156708                       # Number of BP lookups
system.cpu0.branchPred.usedRAS                      0                       # Number of times the RAS was used to get a target.
system.cpu0.branchPredindirectMispredicted      1860576                       # Number of mispredicted indirect branches.
system.cpu0.commit.amos                       1811479                       # Number of atomic instructions committed
system.cpu0.commit.branchMispredicts         11400986                       # The number of times a branch was mispredicted
system.cpu0.commit.branches                 260684020                       # Number of branches committed
system.cpu0.commit.bw_lim_events             27514528                       # number cycles where commit BW limit reached
system.cpu0.commit.commitNonSpecStalls        5441380                       # The number of times commit has been forced to stall to communicate backwards
system.cpu0.commit.commitSquashedInsts      106652519                       # The number of squashed insts skipped by commit
system.cpu0.commit.committedInsts          1050755378                       # Number of instructions committed
system.cpu0.commit.committedOps            1052569365                       # Number of ops (including micro ops) committed
system.cpu0.commit.committed_per_cycle::samples   1751526948                       # Number of insts commited each cycle
system.cpu0.commit.committed_per_cycle::mean     0.600944                       # Number of insts commited each cycle
system.cpu0.commit.committed_per_cycle::stdev     1.345863                       # Number of insts commited each cycle
system.cpu0.commit.committed_per_cycle::underflows            0      0.00%      0.00% # Number of insts commited each cycle
system.cpu0.commit.committed_per_cycle::0   1237436945     70.65%     70.65% # Number of insts commited each cycle
system.cpu0.commit.committed_per_cycle::1    307419314     17.55%     88.20% # Number of insts commited each cycle
system.cpu0.commit.committed_per_cycle::2     71786147      4.10%     92.30% # Number of insts commited each cycle
system.cpu0.commit.committed_per_cycle::3     70540457      4.03%     96.33% # Number of insts commited each cycle
system.cpu0.commit.committed_per_cycle::4     23198410      1.32%     97.65% # Number of insts commited each cycle
system.cpu0.commit.committed_per_cycle::5      7265108      0.41%     98.07% # Number of insts commited each cycle
system.cpu0.commit.committed_per_cycle::6      3841291      0.22%     98.28% # Number of insts commited each cycle
system.cpu0.commit.committed_per_cycle::7      2524748      0.14%     98.43% # Number of insts commited each cycle
system.cpu0.commit.committed_per_cycle::8     27514528      1.57%    100.00% # Number of insts commited each cycle
system.cpu0.commit.committed_per_cycle::overflows            0      0.00%    100.00% # Number of insts commited each cycle
system.cpu0.commit.committed_per_cycle::min_value            0                       # Number of insts commited each cycle
system.cpu0.commit.committed_per_cycle::max_value            8                       # Number of insts commited each cycle
system.cpu0.commit.committed_per_cycle::total   1751526948                       # Number of insts commited each cycle
system.cpu0.commit.fp_insts                        50                       # Number of committed floating point instructions.
system.cpu0.commit.function_calls            20857408                       # Number of function calls committed.
system.cpu0.commit.int_insts               1015947572                       # Number of committed integer instructions.
system.cpu0.commit.loads                    326219895                       # Number of loads committed
system.cpu0.commit.membars                    3625346                       # Number of memory barriers committed
system.cpu0.commit.op_class_0::No_OpClass      3625352      0.34%      0.34% # Class of committed instruction
system.cpu0.commit.op_class_0::IntAlu       583918150     55.48%     55.82% # Class of committed instruction
system.cpu0.commit.op_class_0::IntMult        8031605      0.76%     56.58% # Class of committed instruction
system.cpu0.commit.op_class_0::IntDiv         1811037      0.17%     56.76% # Class of committed instruction
system.cpu0.commit.op_class_0::FloatAdd             0      0.00%     56.76% # Class of committed instruction
system.cpu0.commit.op_class_0::FloatCmp             4      0.00%     56.76% # Class of committed instruction
system.cpu0.commit.op_class_0::FloatCvt            12      0.00%     56.76% # Class of committed instruction
system.cpu0.commit.op_class_0::FloatMult            0      0.00%     56.76% # Class of committed instruction
system.cpu0.commit.op_class_0::FloatMultAcc            0      0.00%     56.76% # Class of committed instruction
system.cpu0.commit.op_class_0::FloatDiv             2      0.00%     56.76% # Class of committed instruction
system.cpu0.commit.op_class_0::FloatMisc            4      0.00%     56.76% # Class of committed instruction
system.cpu0.commit.op_class_0::FloatSqrt            0      0.00%     56.76% # Class of committed instruction
system.cpu0.commit.op_class_0::SimdAdd              0      0.00%     56.76% # Class of committed instruction
system.cpu0.commit.op_class_0::SimdAddAcc            0      0.00%     56.76% # Class of committed instruction
system.cpu0.commit.op_class_0::SimdAlu              0      0.00%     56.76% # Class of committed instruction
system.cpu0.commit.op_class_0::SimdCmp              0      0.00%     56.76% # Class of committed instruction
system.cpu0.commit.op_class_0::SimdCvt              0      0.00%     56.76% # Class of committed instruction
system.cpu0.commit.op_class_0::SimdMisc             0      0.00%     56.76% # Class of committed instruction
system.cpu0.commit.op_class_0::SimdMult             0      0.00%     56.76% # Class of committed instruction
system.cpu0.commit.op_class_0::SimdMultAcc            0      0.00%     56.76% # Class of committed instruction
system.cpu0.commit.op_class_0::SimdShift            0      0.00%     56.76% # Class of committed instruction
system.cpu0.commit.op_class_0::SimdShiftAcc            0      0.00%     56.76% # Class of committed instruction
system.cpu0.commit.op_class_0::SimdDiv              0      0.00%     56.76% # Class of committed instruction
system.cpu0.commit.op_class_0::SimdSqrt             0      0.00%     56.76% # Class of committed instruction
system.cpu0.commit.op_class_0::SimdFloatAdd            0      0.00%     56.76% # Class of committed instruction
system.cpu0.commit.op_class_0::SimdFloatAlu            0      0.00%     56.76% # Class of committed instruction
system.cpu0.commit.op_class_0::SimdFloatCmp            0      0.00%     56.76% # Class of committed instruction
system.cpu0.commit.op_class_0::SimdFloatCvt            0      0.00%     56.76% # Class of committed instruction
system.cpu0.commit.op_class_0::SimdFloatDiv            0      0.00%     56.76% # Class of committed instruction
system.cpu0.commit.op_class_0::SimdFloatMisc            0      0.00%     56.76% # Class of committed instruction
system.cpu0.commit.op_class_0::SimdFloatMult            0      0.00%     56.76% # Class of committed instruction
system.cpu0.commit.op_class_0::SimdFloatMultAcc            0      0.00%     56.76% # Class of committed instruction
system.cpu0.commit.op_class_0::SimdFloatSqrt            0      0.00%     56.76% # Class of committed instruction
system.cpu0.commit.op_class_0::SimdReduceAdd            0      0.00%     56.76% # Class of committed instruction
system.cpu0.commit.op_class_0::SimdReduceAlu            0      0.00%     56.76% # Class of committed instruction
system.cpu0.commit.op_class_0::SimdReduceCmp            0      0.00%     56.76% # Class of committed instruction
system.cpu0.commit.op_class_0::SimdFloatReduceAdd            0      0.00%     56.76% # Class of committed instruction
system.cpu0.commit.op_class_0::SimdFloatReduceCmp            0      0.00%     56.76% # Class of committed instruction
system.cpu0.commit.op_class_0::SimdAes              0      0.00%     56.76% # Class of committed instruction
system.cpu0.commit.op_class_0::SimdAesMix            0      0.00%     56.76% # Class of committed instruction
system.cpu0.commit.op_class_0::SimdSha1Hash            0      0.00%     56.76% # Class of committed instruction
system.cpu0.commit.op_class_0::SimdSha1Hash2            0      0.00%     56.76% # Class of committed instruction
system.cpu0.commit.op_class_0::SimdSha256Hash            0      0.00%     56.76% # Class of committed instruction
system.cpu0.commit.op_class_0::SimdSha256Hash2            0      0.00%     56.76% # Class of committed instruction
system.cpu0.commit.op_class_0::SimdShaSigma2            0      0.00%     56.76% # Class of committed instruction
system.cpu0.commit.op_class_0::SimdShaSigma3            0      0.00%     56.76% # Class of committed instruction
system.cpu0.commit.op_class_0::SimdPredAlu            0      0.00%     56.76% # Class of committed instruction
system.cpu0.commit.op_class_0::MemRead      328031366     31.16%     87.92% # Class of committed instruction
system.cpu0.commit.op_class_0::MemWrite     127151805     12.08%    100.00% # Class of committed instruction
system.cpu0.commit.op_class_0::FloatMemRead            8      0.00%    100.00% # Class of committed instruction
system.cpu0.commit.op_class_0::FloatMemWrite           20      0.00%    100.00% # Class of committed instruction
system.cpu0.commit.op_class_0::IprAccess            0      0.00%    100.00% # Class of committed instruction
system.cpu0.commit.op_class_0::InstPrefetch            0      0.00%    100.00% # Class of committed instruction
system.cpu0.commit.op_class_0::total       1052569365                       # Class of committed instruction
system.cpu0.commit.refs                     455183199                       # Number of memory references committed
system.cpu0.commit.swp_count                        0                       # Number of s/w prefetches committed
system.cpu0.commit.vec_insts                        0                       # Number of committed Vector instructions.
system.cpu0.committedInsts                 1050755378                       # Number of Instructions Simulated
system.cpu0.committedOps                   1052569365                       # Number of Ops (including micro ops) Simulated
system.cpu0.cpi                              1.816356                       # CPI: Cycles Per Instruction
system.cpu0.cpi_total                        1.816356                       # CPI: Total CPI of All Threads
system.cpu0.decode.BlockedCycles            283651456                       # Number of cycles decode is blocked
system.cpu0.decode.BranchMispred              8368595                       # Number of times decode detected a branch misprediction
system.cpu0.decode.BranchResolved           145838329                       # Number of times decode resolved a branch
system.cpu0.decode.DecodedInsts            1187707827                       # Number of instructions handled by decode
system.cpu0.decode.IdleCycles               662802456                       # Number of cycles decode is idle
system.cpu0.decode.RunCycles                809900190                       # Number of cycles decode is running
system.cpu0.decode.SquashCycles              11408861                       # Number of cycles decode is squashing
system.cpu0.decode.SquashedInsts             14090837                       # Number of squashed instructions handled by decode
system.cpu0.decode.UnblockCycles              4831958                       # Number of cycles decode is unblocking
system.cpu0.dtb.accesses                            0                       # DTB accesses
system.cpu0.dtb.hits                                0                       # DTB hits
system.cpu0.dtb.misses                              0                       # DTB misses
system.cpu0.dtb.read_accesses                       0                       # DTB read accesses
system.cpu0.dtb.read_hits                           0                       # DTB read hits
system.cpu0.dtb.read_misses                         0                       # DTB read misses
system.cpu0.dtb.write_accesses                      0                       # DTB write accesses
system.cpu0.dtb.write_hits                          0                       # DTB write hits
system.cpu0.dtb.write_misses                        0                       # DTB write misses
system.cpu0.fetch.Branches                  294156708                       # Number of branches that fetch encountered
system.cpu0.fetch.CacheLines                201044793                       # Number of cache lines fetched
system.cpu0.fetch.Cycles                   1107606807                       # Number of cycles fetch has run and was not squashing or blocked
system.cpu0.fetch.IcacheSquashes              6634589                       # Number of outstanding Icache misses that were squashed
system.cpu0.fetch.IcacheWaitRetryStallCycles          211                       # Number of stall cycles due to full MSHR
system.cpu0.fetch.Insts                    1229134321                       # Number of instructions fetch has processed
system.cpu0.fetch.MiscStallCycles                  25                       # Number of cycles fetch has spent waiting on interrupts, or bad addresses, or out of MSHRs
system.cpu0.fetch.PendingTrapStallCycles           15                       # Number of stall cycles due to pending traps
system.cpu0.fetch.SquashCycles               39527000                       # Number of cycles fetch has spent squashing
system.cpu0.fetch.branchRate                 0.154126                       # Number of branch fetches per cycle
system.cpu0.fetch.icacheStallCycles         645224363                       # Number of cycles fetch is stalled on an Icache miss
system.cpu0.fetch.predictedBranches         169477227                       # Number of branches that fetch has predicted taken
system.cpu0.fetch.rate                       0.644016                       # Number of inst fetches per cycle
system.cpu0.fetch.rateDist::samples        1772594921                       # Number of instructions fetched each cycle (Total)
system.cpu0.fetch.rateDist::mean             0.696722                       # Number of instructions fetched each cycle (Total)
system.cpu0.fetch.rateDist::stdev            0.949204                       # Number of instructions fetched each cycle (Total)
system.cpu0.fetch.rateDist::underflows              0      0.00%      0.00% # Number of instructions fetched each cycle (Total)
system.cpu0.fetch.rateDist::0               919786404     51.89%     51.89% # Number of instructions fetched each cycle (Total)
system.cpu0.fetch.rateDist::1               624608691     35.24%     87.13% # Number of instructions fetched each cycle (Total)
system.cpu0.fetch.rateDist::2               118746533      6.70%     93.83% # Number of instructions fetched each cycle (Total)
system.cpu0.fetch.rateDist::3                81488376      4.60%     98.42% # Number of instructions fetched each cycle (Total)
system.cpu0.fetch.rateDist::4                19572921      1.10%     99.53% # Number of instructions fetched each cycle (Total)
system.cpu0.fetch.rateDist::5                 4049920      0.23%     99.76% # Number of instructions fetched each cycle (Total)
system.cpu0.fetch.rateDist::6                 2419513      0.14%     99.89% # Number of instructions fetched each cycle (Total)
system.cpu0.fetch.rateDist::7                     631      0.00%     99.89% # Number of instructions fetched each cycle (Total)
system.cpu0.fetch.rateDist::8                 1921932      0.11%    100.00% # Number of instructions fetched each cycle (Total)
system.cpu0.fetch.rateDist::overflows               0      0.00%    100.00% # Number of instructions fetched each cycle (Total)
system.cpu0.fetch.rateDist::min_value               0                       # Number of instructions fetched each cycle (Total)
system.cpu0.fetch.rateDist::max_value               8                       # Number of instructions fetched each cycle (Total)
system.cpu0.fetch.rateDist::total          1772594921                       # Number of instructions fetched each cycle (Total)
system.cpu0.fp_regfile_reads                       53                       # number of floating regfile reads
system.cpu0.fp_regfile_writes                      27                       # number of floating regfile writes
system.cpu0.idleCycles                      135951370                       # Total number of cycles that the CPU has spent unscheduled due to idling
system.cpu0.iew.branchMispredicts            11546327                       # Number of branch mispredicts detected at execute
system.cpu0.iew.exec_branches               269953432                       # Number of branches executed
system.cpu0.iew.exec_nop                            0                       # number of nop insts executed
system.cpu0.iew.exec_rate                    0.585132                       # Inst execution rate
system.cpu0.iew.exec_refs                   494920706                       # number of memory reference insts executed
system.cpu0.iew.exec_stores                 133132872                       # Number of stores executed
system.cpu0.iew.exec_swp                            0                       # number of swp insts executed
system.cpu0.iew.iewBlockCycles              247142295                       # Number of cycles IEW is blocking
system.cpu0.iew.iewDispLoadInsts            373494223                       # Number of dispatched load instructions
system.cpu0.iew.iewDispNonSpecInsts           3991250                       # Number of dispatched non-speculative instructions
system.cpu0.iew.iewDispSquashedInsts          5783553                       # Number of squashed instructions skipped by dispatch
system.cpu0.iew.iewDispStoreInsts           138384839                       # Number of dispatched store instructions
system.cpu0.iew.iewDispatchedInsts         1159204815                       # Number of instructions dispatched to IQ
system.cpu0.iew.iewExecLoadInsts            361787834                       # Number of load instructions executed
system.cpu0.iew.iewExecSquashedInsts          9839024                       # Number of squashed instructions skipped in execute
system.cpu0.iew.iewExecutedInsts           1116751689                       # Number of executed instructions
system.cpu0.iew.iewIQFullEvents               1704396                       # Number of times the IQ has become full, causing a stall
system.cpu0.iew.iewIdleCycles                       0                       # Number of cycles IEW is idle
system.cpu0.iew.iewLSQFullEvents              2110213                       # Number of times the LSQ has become full, causing a stall
system.cpu0.iew.iewSquashCycles              11408861                       # Number of cycles IEW is squashing
system.cpu0.iew.iewUnblockCycles              5582527                       # Number of cycles IEW is unblocking
system.cpu0.iew.lsq.thread0.blockedLoads            0                       # Number of blocked loads due to partial load-store forwarding
system.cpu0.iew.lsq.thread0.cacheBlocked        80090                       # Number of times an access to memory failed due to the cache being blocked
system.cpu0.iew.lsq.thread0.forwLoads        16488796                       # Number of loads that had data forwarded from stores
system.cpu0.iew.lsq.thread0.ignoredResponses        51305                       # Number of memory responses ignored because the instruction is squashed
system.cpu0.iew.lsq.thread0.invAddrLoads            0                       # Number of loads ignored due to an invalid address
system.cpu0.iew.lsq.thread0.invAddrSwpfs            0                       # Number of software prefetches ignored due to an invalid address
system.cpu0.iew.lsq.thread0.memOrderViolation         7973                       # Number of memory ordering violations
system.cpu0.iew.lsq.thread0.rescheduledLoads      4308619                       # Number of loads that were rescheduled
system.cpu0.iew.lsq.thread0.squashedLoads     47274328                       # Number of loads squashed
system.cpu0.iew.lsq.thread0.squashedStores      9421535                       # Number of stores squashed
system.cpu0.iew.memOrderViolationEvents          7973                       # Number of memory order violations
system.cpu0.iew.predictedNotTakenIncorrect      1588829                       # Number of branches that were predicted not taken incorrectly
system.cpu0.iew.predictedTakenIncorrect       9957498                       # Number of branches that were predicted taken incorrectly
system.cpu0.iew.wb_consumers                499334478                       # num instructions consuming a value
system.cpu0.iew.wb_count                   1104533535                       # cumulative count of insts written-back
system.cpu0.iew.wb_fanout                    0.836620                       # average fanout of values written-back
system.cpu0.iew.wb_producers                417753194                       # num instructions producing a value
system.cpu0.iew.wb_rate                      0.578730                       # insts written-back per cycle
system.cpu0.iew.wb_sent                    1104602602                       # cumulative count of insts sent to commit
system.cpu0.int_regfile_reads              1364730054                       # number of integer regfile reads
system.cpu0.int_regfile_writes              709371002                       # number of integer regfile writes
system.cpu0.ipc                              0.550553                       # IPC: Instructions Per Cycle
system.cpu0.ipc_total                        0.550553                       # IPC: Total IPC of All Threads
system.cpu0.iq.FU_type_0::No_OpClass          3626826      0.32%      0.32% # Type of FU issued
system.cpu0.iq.FU_type_0::IntAlu            614358924     54.53%     54.85% # Type of FU issued
system.cpu0.iq.FU_type_0::IntMult             8140425      0.72%     55.58% # Type of FU issued
system.cpu0.iq.FU_type_0::IntDiv              1811524      0.16%     55.74% # Type of FU issued
system.cpu0.iq.FU_type_0::FloatAdd                  0      0.00%     55.74% # Type of FU issued
system.cpu0.iq.FU_type_0::FloatCmp                  4      0.00%     55.74% # Type of FU issued
system.cpu0.iq.FU_type_0::FloatCvt                 12      0.00%     55.74% # Type of FU issued
system.cpu0.iq.FU_type_0::FloatMult                 0      0.00%     55.74% # Type of FU issued
system.cpu0.iq.FU_type_0::FloatMultAcc              3      0.00%     55.74% # Type of FU issued
system.cpu0.iq.FU_type_0::FloatDiv                  2      0.00%     55.74% # Type of FU issued
system.cpu0.iq.FU_type_0::FloatMisc                 4      0.00%     55.74% # Type of FU issued
system.cpu0.iq.FU_type_0::FloatSqrt                 0      0.00%     55.74% # Type of FU issued
system.cpu0.iq.FU_type_0::SimdAdd                   0      0.00%     55.74% # Type of FU issued
system.cpu0.iq.FU_type_0::SimdAddAcc                0      0.00%     55.74% # Type of FU issued
system.cpu0.iq.FU_type_0::SimdAlu                   0      0.00%     55.74% # Type of FU issued
system.cpu0.iq.FU_type_0::SimdCmp                   0      0.00%     55.74% # Type of FU issued
system.cpu0.iq.FU_type_0::SimdCvt                   0      0.00%     55.74% # Type of FU issued
system.cpu0.iq.FU_type_0::SimdMisc                  0      0.00%     55.74% # Type of FU issued
system.cpu0.iq.FU_type_0::SimdMult                  0      0.00%     55.74% # Type of FU issued
system.cpu0.iq.FU_type_0::SimdMultAcc               0      0.00%     55.74% # Type of FU issued
system.cpu0.iq.FU_type_0::SimdShift                 0      0.00%     55.74% # Type of FU issued
system.cpu0.iq.FU_type_0::SimdShiftAcc              0      0.00%     55.74% # Type of FU issued
system.cpu0.iq.FU_type_0::SimdDiv                   0      0.00%     55.74% # Type of FU issued
system.cpu0.iq.FU_type_0::SimdSqrt                  0      0.00%     55.74% # Type of FU issued
system.cpu0.iq.FU_type_0::SimdFloatAdd              0      0.00%     55.74% # Type of FU issued
system.cpu0.iq.FU_type_0::SimdFloatAlu              0      0.00%     55.74% # Type of FU issued
system.cpu0.iq.FU_type_0::SimdFloatCmp              0      0.00%     55.74% # Type of FU issued
system.cpu0.iq.FU_type_0::SimdFloatCvt              0      0.00%     55.74% # Type of FU issued
system.cpu0.iq.FU_type_0::SimdFloatDiv              0      0.00%     55.74% # Type of FU issued
system.cpu0.iq.FU_type_0::SimdFloatMisc             0      0.00%     55.74% # Type of FU issued
system.cpu0.iq.FU_type_0::SimdFloatMult             0      0.00%     55.74% # Type of FU issued
system.cpu0.iq.FU_type_0::SimdFloatMultAcc            0      0.00%     55.74% # Type of FU issued
system.cpu0.iq.FU_type_0::SimdFloatSqrt             0      0.00%     55.74% # Type of FU issued
system.cpu0.iq.FU_type_0::SimdReduceAdd             0      0.00%     55.74% # Type of FU issued
system.cpu0.iq.FU_type_0::SimdReduceAlu             0      0.00%     55.74% # Type of FU issued
system.cpu0.iq.FU_type_0::SimdReduceCmp             0      0.00%     55.74% # Type of FU issued
system.cpu0.iq.FU_type_0::SimdFloatReduceAdd            0      0.00%     55.74% # Type of FU issued
system.cpu0.iq.FU_type_0::SimdFloatReduceCmp            0      0.00%     55.74% # Type of FU issued
system.cpu0.iq.FU_type_0::SimdAes                   0      0.00%     55.74% # Type of FU issued
system.cpu0.iq.FU_type_0::SimdAesMix                0      0.00%     55.74% # Type of FU issued
system.cpu0.iq.FU_type_0::SimdSha1Hash              0      0.00%     55.74% # Type of FU issued
system.cpu0.iq.FU_type_0::SimdSha1Hash2             0      0.00%     55.74% # Type of FU issued
system.cpu0.iq.FU_type_0::SimdSha256Hash            0      0.00%     55.74% # Type of FU issued
system.cpu0.iq.FU_type_0::SimdSha256Hash2            0      0.00%     55.74% # Type of FU issued
system.cpu0.iq.FU_type_0::SimdShaSigma2             0      0.00%     55.74% # Type of FU issued
system.cpu0.iq.FU_type_0::SimdShaSigma3             0      0.00%     55.74% # Type of FU issued
system.cpu0.iq.FU_type_0::SimdPredAlu               0      0.00%     55.74% # Type of FU issued
system.cpu0.iq.FU_type_0::MemRead           367036773     32.58%     88.32% # Type of FU issued
system.cpu0.iq.FU_type_0::MemWrite          131616180     11.68%    100.00% # Type of FU issued
system.cpu0.iq.FU_type_0::FloatMemRead             16      0.00%    100.00% # Type of FU issued
system.cpu0.iq.FU_type_0::FloatMemWrite            20      0.00%    100.00% # Type of FU issued
system.cpu0.iq.FU_type_0::IprAccess                 0      0.00%    100.00% # Type of FU issued
system.cpu0.iq.FU_type_0::InstPrefetch              0      0.00%    100.00% # Type of FU issued
system.cpu0.iq.FU_type_0::total            1126590713                       # Type of FU issued
system.cpu0.iq.fp_alu_accesses                     65                       # Number of floating point alu accesses
system.cpu0.iq.fp_inst_queue_reads                126                       # Number of floating instruction queue reads
system.cpu0.iq.fp_inst_queue_wakeup_accesses           55                       # Number of floating instruction queue wakeup accesses
system.cpu0.iq.fp_inst_queue_writes                72                       # Number of floating instruction queue writes
system.cpu0.iq.fu_busy_cnt                    2048390                       # FU busy when requested
system.cpu0.iq.fu_busy_rate                  0.001818                       # FU busy rate (busy events/executed inst)
system.cpu0.iq.fu_full::No_OpClass                  0      0.00%      0.00% # attempts to use FU when none available
system.cpu0.iq.fu_full::IntAlu                 321539     15.70%     15.70% # attempts to use FU when none available
system.cpu0.iq.fu_full::IntMult                     2      0.00%     15.70% # attempts to use FU when none available
system.cpu0.iq.fu_full::IntDiv                      0      0.00%     15.70% # attempts to use FU when none available
system.cpu0.iq.fu_full::FloatAdd                    0      0.00%     15.70% # attempts to use FU when none available
system.cpu0.iq.fu_full::FloatCmp                    0      0.00%     15.70% # attempts to use FU when none available
system.cpu0.iq.fu_full::FloatCvt                    0      0.00%     15.70% # attempts to use FU when none available
system.cpu0.iq.fu_full::FloatMult                   0      0.00%     15.70% # attempts to use FU when none available
system.cpu0.iq.fu_full::FloatMultAcc                0      0.00%     15.70% # attempts to use FU when none available
system.cpu0.iq.fu_full::FloatDiv                    0      0.00%     15.70% # attempts to use FU when none available
system.cpu0.iq.fu_full::FloatMisc                   0      0.00%     15.70% # attempts to use FU when none available
system.cpu0.iq.fu_full::FloatSqrt                   0      0.00%     15.70% # attempts to use FU when none available
system.cpu0.iq.fu_full::SimdAdd                     0      0.00%     15.70% # attempts to use FU when none available
system.cpu0.iq.fu_full::SimdAddAcc                  0      0.00%     15.70% # attempts to use FU when none available
system.cpu0.iq.fu_full::SimdAlu                     0      0.00%     15.70% # attempts to use FU when none available
system.cpu0.iq.fu_full::SimdCmp                     0      0.00%     15.70% # attempts to use FU when none available
system.cpu0.iq.fu_full::SimdCvt                     0      0.00%     15.70% # attempts to use FU when none available
system.cpu0.iq.fu_full::SimdMisc                    0      0.00%     15.70% # attempts to use FU when none available
system.cpu0.iq.fu_full::SimdMult                    0      0.00%     15.70% # attempts to use FU when none available
system.cpu0.iq.fu_full::SimdMultAcc                 0      0.00%     15.70% # attempts to use FU when none available
system.cpu0.iq.fu_full::SimdShift                   0      0.00%     15.70% # attempts to use FU when none available
system.cpu0.iq.fu_full::SimdShiftAcc                0      0.00%     15.70% # attempts to use FU when none available
system.cpu0.iq.fu_full::SimdDiv                     0      0.00%     15.70% # attempts to use FU when none available
system.cpu0.iq.fu_full::SimdSqrt                    0      0.00%     15.70% # attempts to use FU when none available
system.cpu0.iq.fu_full::SimdFloatAdd                0      0.00%     15.70% # attempts to use FU when none available
system.cpu0.iq.fu_full::SimdFloatAlu                0      0.00%     15.70% # attempts to use FU when none available
system.cpu0.iq.fu_full::SimdFloatCmp                0      0.00%     15.70% # attempts to use FU when none available
system.cpu0.iq.fu_full::SimdFloatCvt                0      0.00%     15.70% # attempts to use FU when none available
system.cpu0.iq.fu_full::SimdFloatDiv                0      0.00%     15.70% # attempts to use FU when none available
system.cpu0.iq.fu_full::SimdFloatMisc               0      0.00%     15.70% # attempts to use FU when none available
system.cpu0.iq.fu_full::SimdFloatMult               0      0.00%     15.70% # attempts to use FU when none available
system.cpu0.iq.fu_full::SimdFloatMultAcc            0      0.00%     15.70% # attempts to use FU when none available
system.cpu0.iq.fu_full::SimdFloatSqrt               0      0.00%     15.70% # attempts to use FU when none available
system.cpu0.iq.fu_full::SimdReduceAdd               0      0.00%     15.70% # attempts to use FU when none available
system.cpu0.iq.fu_full::SimdReduceAlu               0      0.00%     15.70% # attempts to use FU when none available
system.cpu0.iq.fu_full::SimdReduceCmp               0      0.00%     15.70% # attempts to use FU when none available
system.cpu0.iq.fu_full::SimdFloatReduceAdd            0      0.00%     15.70% # attempts to use FU when none available
system.cpu0.iq.fu_full::SimdFloatReduceCmp            0      0.00%     15.70% # attempts to use FU when none available
system.cpu0.iq.fu_full::SimdAes                     0      0.00%     15.70% # attempts to use FU when none available
system.cpu0.iq.fu_full::SimdAesMix                  0      0.00%     15.70% # attempts to use FU when none available
system.cpu0.iq.fu_full::SimdSha1Hash                0      0.00%     15.70% # attempts to use FU when none available
system.cpu0.iq.fu_full::SimdSha1Hash2               0      0.00%     15.70% # attempts to use FU when none available
system.cpu0.iq.fu_full::SimdSha256Hash              0      0.00%     15.70% # attempts to use FU when none available
system.cpu0.iq.fu_full::SimdSha256Hash2             0      0.00%     15.70% # attempts to use FU when none available
system.cpu0.iq.fu_full::SimdShaSigma2               0      0.00%     15.70% # attempts to use FU when none available
system.cpu0.iq.fu_full::SimdShaSigma3               0      0.00%     15.70% # attempts to use FU when none available
system.cpu0.iq.fu_full::SimdPredAlu                 0      0.00%     15.70% # attempts to use FU when none available
system.cpu0.iq.fu_full::MemRead               1530636     74.72%     90.42% # attempts to use FU when none available
system.cpu0.iq.fu_full::MemWrite               196209      9.58%    100.00% # attempts to use FU when none available
system.cpu0.iq.fu_full::FloatMemRead                0      0.00%    100.00% # attempts to use FU when none available
system.cpu0.iq.fu_full::FloatMemWrite               4      0.00%    100.00% # attempts to use FU when none available
system.cpu0.iq.fu_full::IprAccess                   0      0.00%    100.00% # attempts to use FU when none available
system.cpu0.iq.fu_full::InstPrefetch                0      0.00%    100.00% # attempts to use FU when none available
system.cpu0.iq.int_alu_accesses            1125012212                       # Number of integer alu accesses
system.cpu0.iq.int_inst_queue_reads        4027939397                       # Number of integer instruction queue reads
system.cpu0.iq.int_inst_queue_wakeup_accesses   1104533480                       # Number of integer instruction queue wakeup accesses
system.cpu0.iq.int_inst_queue_writes       1265847369                       # Number of integer instruction queue writes
system.cpu0.iq.iqInstsAdded                1147105680                       # Number of instructions added to the IQ (excludes non-spec)
system.cpu0.iq.iqInstsIssued               1126590713                       # Number of instructions issued
system.cpu0.iq.iqNonSpecInstsAdded           12099135                       # Number of non-speculative instructions added to the IQ
system.cpu0.iq.iqSquashedInstsExamined      106635447                       # Number of squashed instructions iterated over during squash; mainly for profiling
system.cpu0.iq.iqSquashedInstsIssued           114786                       # Number of squashed instructions issued
system.cpu0.iq.iqSquashedNonSpecRemoved       6657755                       # Number of squashed non-spec instructions that were removed
system.cpu0.iq.iqSquashedOperandsExamined     51644720                       # Number of squashed operands that are examined and possibly removed from graph
system.cpu0.iq.issued_per_cycle::samples   1772594921                       # Number of insts issued each cycle
system.cpu0.iq.issued_per_cycle::mean        0.635560                       # Number of insts issued each cycle
system.cpu0.iq.issued_per_cycle::stdev       0.851084                       # Number of insts issued each cycle
system.cpu0.iq.issued_per_cycle::underflows            0      0.00%      0.00% # Number of insts issued each cycle
system.cpu0.iq.issued_per_cycle::0          982817999     55.45%     55.45% # Number of insts issued each cycle
system.cpu0.iq.issued_per_cycle::1          535255342     30.20%     85.64% # Number of insts issued each cycle
system.cpu0.iq.issued_per_cycle::2          185214583     10.45%     96.09% # Number of insts issued each cycle
system.cpu0.iq.issued_per_cycle::3           59091769      3.33%     99.42% # Number of insts issued each cycle
system.cpu0.iq.issued_per_cycle::4            8744774      0.49%     99.92% # Number of insts issued each cycle
system.cpu0.iq.issued_per_cycle::5             582966      0.03%     99.95% # Number of insts issued each cycle
system.cpu0.iq.issued_per_cycle::6             599756      0.03%     99.98% # Number of insts issued each cycle
system.cpu0.iq.issued_per_cycle::7             163420      0.01%     99.99% # Number of insts issued each cycle
system.cpu0.iq.issued_per_cycle::8             124312      0.01%    100.00% # Number of insts issued each cycle
system.cpu0.iq.issued_per_cycle::overflows            0      0.00%    100.00% # Number of insts issued each cycle
system.cpu0.iq.issued_per_cycle::min_value            0                       # Number of insts issued each cycle
system.cpu0.iq.issued_per_cycle::max_value            8                       # Number of insts issued each cycle
system.cpu0.iq.issued_per_cycle::total     1772594921                       # Number of insts issued each cycle
system.cpu0.iq.rate                          0.590287                       # Inst issue rate
system.cpu0.iq.vec_alu_accesses                     0                       # Number of vector alu accesses
system.cpu0.iq.vec_inst_queue_reads                 0                       # Number of vector instruction queue reads
system.cpu0.iq.vec_inst_queue_wakeup_accesses            0                       # Number of vector instruction queue wakeup accesses
system.cpu0.iq.vec_inst_queue_writes                0                       # Number of vector instruction queue writes
system.cpu0.itb.accesses                            0                       # DTB accesses
system.cpu0.itb.hits                                0                       # DTB hits
system.cpu0.itb.misses                              0                       # DTB misses
system.cpu0.itb.read_accesses                       0                       # DTB read accesses
system.cpu0.itb.read_hits                           0                       # DTB read hits
system.cpu0.itb.read_misses                         0                       # DTB read misses
system.cpu0.itb.write_accesses                      0                       # DTB write accesses
system.cpu0.itb.write_hits                          0                       # DTB write hits
system.cpu0.itb.write_misses                        0                       # DTB write misses
system.cpu0.memDep0.conflictingLoads         28079169                       # Number of conflicting loads.
system.cpu0.memDep0.conflictingStores         5778685                       # Number of conflicting stores.
system.cpu0.memDep0.insertedLoads           373494223                       # Number of loads inserted to the mem dependence unit.
system.cpu0.memDep0.insertedStores          138384839                       # Number of stores inserted to the mem dependence unit.
system.cpu0.misc_regfile_reads                   1502                       # number of misc regfile reads
system.cpu0.misc_regfile_writes                    22                       # number of misc regfile writes
system.cpu0.numCycles                      1908546291                       # number of cpu cycles simulated
system.cpu0.numWorkItemsCompleted                   0                       # number of work items this cpu completed
system.cpu0.numWorkItemsStarted                     0                       # number of work items this cpu started
system.cpu0.quiesceCycles                     2734661                       # Total number of cycles that CPU has spent quiesced or waiting for an interrupt
system.cpu0.rename.BlockCycles              260706782                       # Number of cycles rename is blocking
system.cpu0.rename.CommittedMaps            670623192                       # Number of HB maps that are committed
system.cpu0.rename.IQFullEvents               8120498                       # Number of times rename has blocked due to IQ full
system.cpu0.rename.IdleCycles               673438056                       # Number of cycles rename is idle
system.cpu0.rename.LQFullEvents               5370024                       # Number of times rename has blocked due to LQ full
system.cpu0.rename.ROBFullEvents                26868                       # Number of times rename has blocked due to ROB full
system.cpu0.rename.RenameLookups           1436796529                       # Number of register rename lookups that rename has made
system.cpu0.rename.RenamedInsts            1178901769                       # Number of instructions processed by rename
system.cpu0.rename.RenamedOperands          764346028                       # Number of destination operands rename has renamed
system.cpu0.rename.RunCycles                802902602                       # Number of cycles rename is running
system.cpu0.rename.SQFullEvents              10105961                       # Number of times rename has blocked due to SQ full
system.cpu0.rename.SquashCycles              11408861                       # Number of cycles rename is squashing
system.cpu0.rename.UnblockCycles             24005569                       # Number of cycles rename is unblocking
system.cpu0.rename.UndoneMaps                93722832                       # Number of HB maps that are undone due to squashing
system.cpu0.rename.fp_rename_lookups               53                       # Number of floating rename lookups
system.cpu0.rename.int_rename_lookups      1436796476                       # Number of integer rename lookups
system.cpu0.rename.serializeStallCycles        133051                       # count of cycles rename stalled for serializing inst
system.cpu0.rename.serializingInsts              4661                       # count of serializing insts renamed
system.cpu0.rename.skidInsts                 18946086                       # count of insts added to the skid buffer
system.cpu0.rename.tempSerializingInsts          4654                       # count of temporary serializing insts renamed
system.cpu0.rob.rob_reads                  2883215259                       # The number of ROB reads
system.cpu0.rob.rob_writes                 2339527973                       # The number of ROB writes
system.cpu0.timesIdled                       20146081                       # Number of times that the entire CPU went into an idle state and unscheduled itself
system.cpu0.workload.numSyscalls                 1466                       # Number of system calls
system.cpu1.branchPred.BTBCorrect                   0                       # Number of correct BTB predictions (this stat may not work properly.
system.cpu1.branchPred.BTBHitPct            94.297250                       # BTB Hit Percentage
system.cpu1.branchPred.BTBHits                8808755                       # Number of BTB hits
system.cpu1.branchPred.BTBLookups             9341476                       # Number of BTB lookups
system.cpu1.branchPred.RASInCorrect                 0                       # Number of incorrect RAS predictions.
system.cpu1.branchPred.condIncorrect          1666284                       # Number of conditional branches incorrect
system.cpu1.branchPred.condPredicted         16974552                       # Number of conditional branches predicted
system.cpu1.branchPred.indirectHits            327461                       # Number of indirect target hits.
system.cpu1.branchPred.indirectLookups         494048                       # Number of indirect predictor lookups.
system.cpu1.branchPred.indirectMisses          166587                       # Number of indirect misses.
system.cpu1.branchPred.lookups               18599526                       # Number of BP lookups
system.cpu1.branchPred.usedRAS                      0                       # Number of times the RAS was used to get a target.
system.cpu1.branchPredindirectMispredicted         4615                       # Number of mispredicted indirect branches.
system.cpu1.commit.amos                       1811200                       # Number of atomic instructions committed
system.cpu1.commit.branchMispredicts           954992                       # The number of times a branch was mispredicted
system.cpu1.commit.branches                  12200897                       # Number of branches committed
system.cpu1.commit.bw_lim_events              1087901                       # number cycles where commit BW limit reached
system.cpu1.commit.commitNonSpecStalls        5434251                       # The number of times commit has been forced to stall to communicate backwards
system.cpu1.commit.commitSquashedInsts       17513753                       # The number of squashed insts skipped by commit
system.cpu1.commit.committedInsts            55069118                       # Number of instructions committed
system.cpu1.commit.committedOps              56880489                       # Number of ops (including micro ops) committed
system.cpu1.commit.committed_per_cycle::samples    326225092                       # Number of insts commited each cycle
system.cpu1.commit.committed_per_cycle::mean     0.174360                       # Number of insts commited each cycle
system.cpu1.commit.committed_per_cycle::stdev     0.809501                       # Number of insts commited each cycle
system.cpu1.commit.committed_per_cycle::underflows            0      0.00%      0.00% # Number of insts commited each cycle
system.cpu1.commit.committed_per_cycle::0    302060777     92.59%     92.59% # Number of insts commited each cycle
system.cpu1.commit.committed_per_cycle::1     12105727      3.71%     96.30% # Number of insts commited each cycle
system.cpu1.commit.committed_per_cycle::2      4136296      1.27%     97.57% # Number of insts commited each cycle
system.cpu1.commit.committed_per_cycle::3      3745230      1.15%     98.72% # Number of insts commited each cycle
system.cpu1.commit.committed_per_cycle::4       907317      0.28%     99.00% # Number of insts commited each cycle
system.cpu1.commit.committed_per_cycle::5       342541      0.11%     99.10% # Number of insts commited each cycle
system.cpu1.commit.committed_per_cycle::6      1653822      0.51%     99.61% # Number of insts commited each cycle
system.cpu1.commit.committed_per_cycle::7       185481      0.06%     99.67% # Number of insts commited each cycle
system.cpu1.commit.committed_per_cycle::8      1087901      0.33%    100.00% # Number of insts commited each cycle
system.cpu1.commit.committed_per_cycle::overflows            0      0.00%    100.00% # Number of insts commited each cycle
system.cpu1.commit.committed_per_cycle::min_value            0                       # Number of insts commited each cycle
system.cpu1.commit.committed_per_cycle::max_value            8                       # Number of insts commited each cycle
system.cpu1.commit.committed_per_cycle::total    326225092                       # Number of insts commited each cycle
system.cpu1.commit.fp_insts                        12                       # Number of committed floating point instructions.
system.cpu1.commit.function_calls              502222                       # Number of function calls committed.
system.cpu1.commit.int_insts                 52966482                       # Number of committed integer instructions.
system.cpu1.commit.loads                     16124687                       # Number of loads committed
system.cpu1.commit.membars                    3622514                       # Number of memory barriers committed
system.cpu1.commit.op_class_0::No_OpClass      3622514      6.37%      6.37% # Class of committed instruction
system.cpu1.commit.op_class_0::IntAlu        32006106     56.27%     62.64% # Class of committed instruction
system.cpu1.commit.op_class_0::IntMult             43      0.00%     62.64% # Class of committed instruction
system.cpu1.commit.op_class_0::IntDiv              86      0.00%     62.64% # Class of committed instruction
system.cpu1.commit.op_class_0::FloatAdd             0      0.00%     62.64% # Class of committed instruction
system.cpu1.commit.op_class_0::FloatCmp             0      0.00%     62.64% # Class of committed instruction
system.cpu1.commit.op_class_0::FloatCvt             0      0.00%     62.64% # Class of committed instruction
system.cpu1.commit.op_class_0::FloatMult            0      0.00%     62.64% # Class of committed instruction
system.cpu1.commit.op_class_0::FloatMultAcc            0      0.00%     62.64% # Class of committed instruction
system.cpu1.commit.op_class_0::FloatDiv             0      0.00%     62.64% # Class of committed instruction
system.cpu1.commit.op_class_0::FloatMisc            0      0.00%     62.64% # Class of committed instruction
system.cpu1.commit.op_class_0::FloatSqrt            0      0.00%     62.64% # Class of committed instruction
system.cpu1.commit.op_class_0::SimdAdd              0      0.00%     62.64% # Class of committed instruction
system.cpu1.commit.op_class_0::SimdAddAcc            0      0.00%     62.64% # Class of committed instruction
system.cpu1.commit.op_class_0::SimdAlu              0      0.00%     62.64% # Class of committed instruction
system.cpu1.commit.op_class_0::SimdCmp              0      0.00%     62.64% # Class of committed instruction
system.cpu1.commit.op_class_0::SimdCvt              0      0.00%     62.64% # Class of committed instruction
system.cpu1.commit.op_class_0::SimdMisc             0      0.00%     62.64% # Class of committed instruction
system.cpu1.commit.op_class_0::SimdMult             0      0.00%     62.64% # Class of committed instruction
system.cpu1.commit.op_class_0::SimdMultAcc            0      0.00%     62.64% # Class of committed instruction
system.cpu1.commit.op_class_0::SimdShift            0      0.00%     62.64% # Class of committed instruction
system.cpu1.commit.op_class_0::SimdShiftAcc            0      0.00%     62.64% # Class of committed instruction
system.cpu1.commit.op_class_0::SimdDiv              0      0.00%     62.64% # Class of committed instruction
system.cpu1.commit.op_class_0::SimdSqrt             0      0.00%     62.64% # Class of committed instruction
system.cpu1.commit.op_class_0::SimdFloatAdd            0      0.00%     62.64% # Class of committed instruction
system.cpu1.commit.op_class_0::SimdFloatAlu            0      0.00%     62.64% # Class of committed instruction
system.cpu1.commit.op_class_0::SimdFloatCmp            0      0.00%     62.64% # Class of committed instruction
system.cpu1.commit.op_class_0::SimdFloatCvt            0      0.00%     62.64% # Class of committed instruction
system.cpu1.commit.op_class_0::SimdFloatDiv            0      0.00%     62.64% # Class of committed instruction
system.cpu1.commit.op_class_0::SimdFloatMisc            0      0.00%     62.64% # Class of committed instruction
system.cpu1.commit.op_class_0::SimdFloatMult            0      0.00%     62.64% # Class of committed instruction
system.cpu1.commit.op_class_0::SimdFloatMultAcc            0      0.00%     62.64% # Class of committed instruction
system.cpu1.commit.op_class_0::SimdFloatSqrt            0      0.00%     62.64% # Class of committed instruction
system.cpu1.commit.op_class_0::SimdReduceAdd            0      0.00%     62.64% # Class of committed instruction
system.cpu1.commit.op_class_0::SimdReduceAlu            0      0.00%     62.64% # Class of committed instruction
system.cpu1.commit.op_class_0::SimdReduceCmp            0      0.00%     62.64% # Class of committed instruction
system.cpu1.commit.op_class_0::SimdFloatReduceAdd            0      0.00%     62.64% # Class of committed instruction
system.cpu1.commit.op_class_0::SimdFloatReduceCmp            0      0.00%     62.64% # Class of committed instruction
system.cpu1.commit.op_class_0::SimdAes              0      0.00%     62.64% # Class of committed instruction
system.cpu1.commit.op_class_0::SimdAesMix            0      0.00%     62.64% # Class of committed instruction
system.cpu1.commit.op_class_0::SimdSha1Hash            0      0.00%     62.64% # Class of committed instruction
system.cpu1.commit.op_class_0::SimdSha1Hash2            0      0.00%     62.64% # Class of committed instruction
system.cpu1.commit.op_class_0::SimdSha256Hash            0      0.00%     62.64% # Class of committed instruction
system.cpu1.commit.op_class_0::SimdSha256Hash2            0      0.00%     62.64% # Class of committed instruction
system.cpu1.commit.op_class_0::SimdShaSigma2            0      0.00%     62.64% # Class of committed instruction
system.cpu1.commit.op_class_0::SimdShaSigma3            0      0.00%     62.64% # Class of committed instruction
system.cpu1.commit.op_class_0::SimdPredAlu            0      0.00%     62.64% # Class of committed instruction
system.cpu1.commit.op_class_0::MemRead       17935887     31.53%     94.17% # Class of committed instruction
system.cpu1.commit.op_class_0::MemWrite       3315841      5.83%    100.00% # Class of committed instruction
system.cpu1.commit.op_class_0::FloatMemRead            0      0.00%    100.00% # Class of committed instruction
system.cpu1.commit.op_class_0::FloatMemWrite           12      0.00%    100.00% # Class of committed instruction
system.cpu1.commit.op_class_0::IprAccess            0      0.00%    100.00% # Class of committed instruction
system.cpu1.commit.op_class_0::InstPrefetch            0      0.00%    100.00% # Class of committed instruction
system.cpu1.commit.op_class_0::total         56880489                       # Class of committed instruction
system.cpu1.commit.refs                      21251740                       # Number of memory references committed
system.cpu1.commit.swp_count                        0                       # Number of s/w prefetches committed
system.cpu1.commit.vec_insts                        0                       # Number of committed Vector instructions.
system.cpu1.committedInsts                   55069118                       # Number of Instructions Simulated
system.cpu1.committedOps                     56880489                       # Number of Ops (including micro ops) Simulated
system.cpu1.cpi                              5.983963                       # CPI: Cycles Per Instruction
system.cpu1.cpi_total                        5.983963                       # CPI: Total CPI of All Threads
system.cpu1.decode.BlockedCycles            283116384                       # Number of cycles decode is blocked
system.cpu1.decode.BranchMispred               718680                       # Number of times decode detected a branch misprediction
system.cpu1.decode.BranchResolved             8001721                       # Number of times decode resolved a branch
system.cpu1.decode.DecodedInsts              79211843                       # Number of instructions handled by decode
system.cpu1.decode.IdleCycles                13198468                       # Number of cycles decode is idle
system.cpu1.decode.RunCycles                 27622803                       # Number of cycles decode is running
system.cpu1.decode.SquashCycles                955406                       # Number of cycles decode is squashing
system.cpu1.decode.SquashedInsts              1093515                       # Number of squashed instructions handled by decode
system.cpu1.decode.UnblockCycles              4170446                       # Number of cycles decode is unblocking
system.cpu1.dtb.accesses                            0                       # DTB accesses
system.cpu1.dtb.hits                                0                       # DTB hits
system.cpu1.dtb.misses                              0                       # DTB misses
system.cpu1.dtb.read_accesses                       0                       # DTB read accesses
system.cpu1.dtb.read_hits                           0                       # DTB read hits
system.cpu1.dtb.read_misses                         0                       # DTB read misses
system.cpu1.dtb.write_accesses                      0                       # DTB write accesses
system.cpu1.dtb.write_hits                          0                       # DTB write hits
system.cpu1.dtb.write_misses                        0                       # DTB write misses
system.cpu1.fetch.Branches                   18599526                       # Number of branches that fetch encountered
system.cpu1.fetch.CacheLines                 13157320                       # Number of cache lines fetched
system.cpu1.fetch.Cycles                    312898328                       # Number of cycles fetch has run and was not squashing or blocked
system.cpu1.fetch.IcacheSquashes               136731                       # Number of outstanding Icache misses that were squashed
system.cpu1.fetch.Insts                      89466225                       # Number of instructions fetch has processed
system.cpu1.fetch.MiscStallCycles                   3                       # Number of cycles fetch has spent waiting on interrupts, or bad addresses, or out of MSHRs
system.cpu1.fetch.PendingTrapStallCycles           15                       # Number of stall cycles due to pending traps
system.cpu1.fetch.SquashCycles                3333400                       # Number of cycles fetch has spent squashing
system.cpu1.fetch.branchRate                 0.056442                       # Number of branch fetches per cycle
system.cpu1.fetch.icacheStallCycles          14498461                       # Number of cycles fetch is stalled on an Icache miss
system.cpu1.fetch.predictedBranches           9136216                       # Number of branches that fetch has predicted taken
system.cpu1.fetch.rate                       0.271495                       # Number of inst fetches per cycle
system.cpu1.fetch.rateDist::samples         329063507                       # Number of instructions fetched each cycle (Total)
system.cpu1.fetch.rateDist::mean             0.282126                       # Number of instructions fetched each cycle (Total)
system.cpu1.fetch.rateDist::stdev            0.763341                       # Number of instructions fetched each cycle (Total)
system.cpu1.fetch.rateDist::underflows              0      0.00%      0.00% # Number of instructions fetched each cycle (Total)
system.cpu1.fetch.rateDist::0               274918906     83.55%     83.55% # Number of instructions fetched each cycle (Total)
system.cpu1.fetch.rateDist::1                30865612      9.38%     92.93% # Number of instructions fetched each cycle (Total)
system.cpu1.fetch.rateDist::2                13581050      4.13%     97.05% # Number of instructions fetched each cycle (Total)
system.cpu1.fetch.rateDist::3                 5946813      1.81%     98.86% # Number of instructions fetched each cycle (Total)
system.cpu1.fetch.rateDist::4                 2536703      0.77%     99.63% # Number of instructions fetched each cycle (Total)
system.cpu1.fetch.rateDist::5                  471284      0.14%     99.77% # Number of instructions fetched each cycle (Total)
system.cpu1.fetch.rateDist::6                  739546      0.22%    100.00% # Number of instructions fetched each cycle (Total)
system.cpu1.fetch.rateDist::7                      12      0.00%    100.00% # Number of instructions fetched each cycle (Total)
system.cpu1.fetch.rateDist::8                    3581      0.00%    100.00% # Number of instructions fetched each cycle (Total)
system.cpu1.fetch.rateDist::overflows               0      0.00%    100.00% # Number of instructions fetched each cycle (Total)
system.cpu1.fetch.rateDist::min_value               0                       # Number of instructions fetched each cycle (Total)
system.cpu1.fetch.rateDist::max_value               8                       # Number of instructions fetched each cycle (Total)
system.cpu1.fetch.rateDist::total           329063507                       # Number of instructions fetched each cycle (Total)
system.cpu1.fp_regfile_reads                       12                       # number of floating regfile reads
system.cpu1.idleCycles                         468082                       # Total number of cycles that the CPU has spent unscheduled due to idling
system.cpu1.iew.branchMispredicts              997024                       # Number of branch mispredicts detected at execute
system.cpu1.iew.exec_branches                14256300                       # Number of branches executed
system.cpu1.iew.exec_nop                            0                       # number of nop insts executed
system.cpu1.iew.exec_rate                    0.190012                       # Inst execution rate
system.cpu1.iew.exec_refs                    22254935                       # number of memory reference insts executed
system.cpu1.iew.exec_stores                   5207971                       # Number of stores executed
system.cpu1.iew.exec_swp                            0                       # number of swp insts executed
system.cpu1.iew.iewBlockCycles              245491598                       # Number of cycles IEW is blocking
system.cpu1.iew.iewDispLoadInsts             21164235                       # Number of dispatched load instructions
system.cpu1.iew.iewDispNonSpecInsts           2535253                       # Number of dispatched non-speculative instructions
system.cpu1.iew.iewDispSquashedInsts          1561130                       # Number of squashed instructions skipped by dispatch
system.cpu1.iew.iewDispStoreInsts             6735507                       # Number of dispatched store instructions
system.cpu1.iew.iewDispatchedInsts           74385448                       # Number of instructions dispatched to IQ
system.cpu1.iew.iewExecLoadInsts             17046964                       # Number of load instructions executed
system.cpu1.iew.iewExecSquashedInsts           746151                       # Number of squashed instructions skipped in execute
system.cpu1.iew.iewExecutedInsts             62614945                       # Number of executed instructions
system.cpu1.iew.iewIQFullEvents               1681704                       # Number of times the IQ has become full, causing a stall
system.cpu1.iew.iewIdleCycles                       0                       # Number of cycles IEW is idle
system.cpu1.iew.iewLSQFullEvents              1469311                       # Number of times the LSQ has become full, causing a stall
system.cpu1.iew.iewSquashCycles                955406                       # Number of cycles IEW is squashing
system.cpu1.iew.iewUnblockCycles              5074924                       # Number of cycles IEW is unblocking
system.cpu1.iew.lsq.thread0.blockedLoads            0                       # Number of blocked loads due to partial load-store forwarding
system.cpu1.iew.lsq.thread0.cacheBlocked        15686                       # Number of times an access to memory failed due to the cache being blocked
system.cpu1.iew.lsq.thread0.forwLoads          293008                       # Number of loads that had data forwarded from stores
system.cpu1.iew.lsq.thread0.ignoredResponses        10568                       # Number of memory responses ignored because the instruction is squashed
system.cpu1.iew.lsq.thread0.invAddrLoads            0                       # Number of loads ignored due to an invalid address
system.cpu1.iew.lsq.thread0.invAddrSwpfs            0                       # Number of software prefetches ignored due to an invalid address
system.cpu1.iew.lsq.thread0.memOrderViolation          424                       # Number of memory ordering violations
system.cpu1.iew.lsq.thread0.rescheduledLoads         2428                       # Number of loads that were rescheduled
system.cpu1.iew.lsq.thread0.squashedLoads      5039548                       # Number of loads squashed
system.cpu1.iew.lsq.thread0.squashedStores      1608454                       # Number of stores squashed
system.cpu1.iew.memOrderViolationEvents           424                       # Number of memory order violations
system.cpu1.iew.predictedNotTakenIncorrect       192868                       # Number of branches that were predicted not taken incorrectly
system.cpu1.iew.predictedTakenIncorrect        804156                       # Number of branches that were predicted taken incorrectly
system.cpu1.iew.wb_consumers                 35396877                       # num instructions consuming a value
system.cpu1.iew.wb_count                     62285717                       # cumulative count of insts written-back
system.cpu1.iew.wb_fanout                    0.853393                       # average fanout of values written-back
system.cpu1.iew.wb_producers                 30207441                       # num instructions producing a value
system.cpu1.iew.wb_rate                      0.189013                       # insts written-back per cycle
system.cpu1.iew.wb_sent                      62300098                       # cumulative count of insts sent to commit
system.cpu1.int_regfile_reads                78129670                       # number of integer regfile reads
system.cpu1.int_regfile_writes               41297374                       # number of integer regfile writes
system.cpu1.ipc                              0.167113                       # IPC: Instructions Per Cycle
system.cpu1.ipc_total                        0.167113                       # IPC: Total IPC of All Threads
system.cpu1.iq.FU_type_0::No_OpClass          3622617      5.72%      5.72% # Type of FU issued
system.cpu1.iq.FU_type_0::IntAlu             37379339     58.99%     64.71% # Type of FU issued
system.cpu1.iq.FU_type_0::IntMult                  46      0.00%     64.71% # Type of FU issued
system.cpu1.iq.FU_type_0::IntDiv                   88      0.00%     64.71% # Type of FU issued
system.cpu1.iq.FU_type_0::FloatAdd                  0      0.00%     64.71% # Type of FU issued
system.cpu1.iq.FU_type_0::FloatCmp                  0      0.00%     64.71% # Type of FU issued
system.cpu1.iq.FU_type_0::FloatCvt                  0      0.00%     64.71% # Type of FU issued
system.cpu1.iq.FU_type_0::FloatMult                 0      0.00%     64.71% # Type of FU issued
system.cpu1.iq.FU_type_0::FloatMultAcc              0      0.00%     64.71% # Type of FU issued
system.cpu1.iq.FU_type_0::FloatDiv                  0      0.00%     64.71% # Type of FU issued
system.cpu1.iq.FU_type_0::FloatMisc                 0      0.00%     64.71% # Type of FU issued
system.cpu1.iq.FU_type_0::FloatSqrt                 0      0.00%     64.71% # Type of FU issued
system.cpu1.iq.FU_type_0::SimdAdd                   0      0.00%     64.71% # Type of FU issued
system.cpu1.iq.FU_type_0::SimdAddAcc                0      0.00%     64.71% # Type of FU issued
system.cpu1.iq.FU_type_0::SimdAlu                   0      0.00%     64.71% # Type of FU issued
system.cpu1.iq.FU_type_0::SimdCmp                   0      0.00%     64.71% # Type of FU issued
system.cpu1.iq.FU_type_0::SimdCvt                   0      0.00%     64.71% # Type of FU issued
system.cpu1.iq.FU_type_0::SimdMisc                  0      0.00%     64.71% # Type of FU issued
system.cpu1.iq.FU_type_0::SimdMult                  0      0.00%     64.71% # Type of FU issued
system.cpu1.iq.FU_type_0::SimdMultAcc               0      0.00%     64.71% # Type of FU issued
system.cpu1.iq.FU_type_0::SimdShift                 0      0.00%     64.71% # Type of FU issued
system.cpu1.iq.FU_type_0::SimdShiftAcc              0      0.00%     64.71% # Type of FU issued
system.cpu1.iq.FU_type_0::SimdDiv                   0      0.00%     64.71% # Type of FU issued
system.cpu1.iq.FU_type_0::SimdSqrt                  0      0.00%     64.71% # Type of FU issued
system.cpu1.iq.FU_type_0::SimdFloatAdd              0      0.00%     64.71% # Type of FU issued
system.cpu1.iq.FU_type_0::SimdFloatAlu              0      0.00%     64.71% # Type of FU issued
system.cpu1.iq.FU_type_0::SimdFloatCmp              0      0.00%     64.71% # Type of FU issued
system.cpu1.iq.FU_type_0::SimdFloatCvt              0      0.00%     64.71% # Type of FU issued
system.cpu1.iq.FU_type_0::SimdFloatDiv              0      0.00%     64.71% # Type of FU issued
system.cpu1.iq.FU_type_0::SimdFloatMisc             0      0.00%     64.71% # Type of FU issued
system.cpu1.iq.FU_type_0::SimdFloatMult             0      0.00%     64.71% # Type of FU issued
system.cpu1.iq.FU_type_0::SimdFloatMultAcc            0      0.00%     64.71% # Type of FU issued
system.cpu1.iq.FU_type_0::SimdFloatSqrt             0      0.00%     64.71% # Type of FU issued
system.cpu1.iq.FU_type_0::SimdReduceAdd             0      0.00%     64.71% # Type of FU issued
system.cpu1.iq.FU_type_0::SimdReduceAlu             0      0.00%     64.71% # Type of FU issued
system.cpu1.iq.FU_type_0::SimdReduceCmp             0      0.00%     64.71% # Type of FU issued
system.cpu1.iq.FU_type_0::SimdFloatReduceAdd            0      0.00%     64.71% # Type of FU issued
system.cpu1.iq.FU_type_0::SimdFloatReduceCmp            0      0.00%     64.71% # Type of FU issued
system.cpu1.iq.FU_type_0::SimdAes                   0      0.00%     64.71% # Type of FU issued
system.cpu1.iq.FU_type_0::SimdAesMix                0      0.00%     64.71% # Type of FU issued
system.cpu1.iq.FU_type_0::SimdSha1Hash              0      0.00%     64.71% # Type of FU issued
system.cpu1.iq.FU_type_0::SimdSha1Hash2             0      0.00%     64.71% # Type of FU issued
system.cpu1.iq.FU_type_0::SimdSha256Hash            0      0.00%     64.71% # Type of FU issued
system.cpu1.iq.FU_type_0::SimdSha256Hash2            0      0.00%     64.71% # Type of FU issued
system.cpu1.iq.FU_type_0::SimdShaSigma2             0      0.00%     64.71% # Type of FU issued
system.cpu1.iq.FU_type_0::SimdShaSigma3             0      0.00%     64.71% # Type of FU issued
system.cpu1.iq.FU_type_0::SimdPredAlu               0      0.00%     64.71% # Type of FU issued
system.cpu1.iq.FU_type_0::MemRead            18948518     29.91%     94.62% # Type of FU issued
system.cpu1.iq.FU_type_0::MemWrite            3410476      5.38%    100.00% # Type of FU issued
system.cpu1.iq.FU_type_0::FloatMemRead              0      0.00%    100.00% # Type of FU issued
system.cpu1.iq.FU_type_0::FloatMemWrite            12      0.00%    100.00% # Type of FU issued
system.cpu1.iq.FU_type_0::IprAccess                 0      0.00%    100.00% # Type of FU issued
system.cpu1.iq.FU_type_0::InstPrefetch              0      0.00%    100.00% # Type of FU issued
system.cpu1.iq.FU_type_0::total              63361096                       # Type of FU issued
system.cpu1.iq.fp_alu_accesses                     16                       # Number of floating point alu accesses
system.cpu1.iq.fp_inst_queue_reads                 28                       # Number of floating instruction queue reads
system.cpu1.iq.fp_inst_queue_wakeup_accesses           12                       # Number of floating instruction queue wakeup accesses
system.cpu1.iq.fp_inst_queue_writes                12                       # Number of floating instruction queue writes
system.cpu1.iq.fu_busy_cnt                    1837462                       # FU busy when requested
system.cpu1.iq.fu_busy_rate                  0.029000                       # FU busy rate (busy events/executed inst)
system.cpu1.iq.fu_full::No_OpClass                  0      0.00%      0.00% # attempts to use FU when none available
system.cpu1.iq.fu_full::IntAlu                 240127     13.07%     13.07% # attempts to use FU when none available
system.cpu1.iq.fu_full::IntMult                     0      0.00%     13.07% # attempts to use FU when none available
system.cpu1.iq.fu_full::IntDiv                      0      0.00%     13.07% # attempts to use FU when none available
system.cpu1.iq.fu_full::FloatAdd                    0      0.00%     13.07% # attempts to use FU when none available
system.cpu1.iq.fu_full::FloatCmp                    0      0.00%     13.07% # attempts to use FU when none available
system.cpu1.iq.fu_full::FloatCvt                    0      0.00%     13.07% # attempts to use FU when none available
system.cpu1.iq.fu_full::FloatMult                   0      0.00%     13.07% # attempts to use FU when none available
system.cpu1.iq.fu_full::FloatMultAcc                0      0.00%     13.07% # attempts to use FU when none available
system.cpu1.iq.fu_full::FloatDiv                    0      0.00%     13.07% # attempts to use FU when none available
system.cpu1.iq.fu_full::FloatMisc                   0      0.00%     13.07% # attempts to use FU when none available
system.cpu1.iq.fu_full::FloatSqrt                   0      0.00%     13.07% # attempts to use FU when none available
system.cpu1.iq.fu_full::SimdAdd                     0      0.00%     13.07% # attempts to use FU when none available
system.cpu1.iq.fu_full::SimdAddAcc                  0      0.00%     13.07% # attempts to use FU when none available
system.cpu1.iq.fu_full::SimdAlu                     0      0.00%     13.07% # attempts to use FU when none available
system.cpu1.iq.fu_full::SimdCmp                     0      0.00%     13.07% # attempts to use FU when none available
system.cpu1.iq.fu_full::SimdCvt                     0      0.00%     13.07% # attempts to use FU when none available
system.cpu1.iq.fu_full::SimdMisc                    0      0.00%     13.07% # attempts to use FU when none available
system.cpu1.iq.fu_full::SimdMult                    0      0.00%     13.07% # attempts to use FU when none available
system.cpu1.iq.fu_full::SimdMultAcc                 0      0.00%     13.07% # attempts to use FU when none available
system.cpu1.iq.fu_full::SimdShift                   0      0.00%     13.07% # attempts to use FU when none available
system.cpu1.iq.fu_full::SimdShiftAcc                0      0.00%     13.07% # attempts to use FU when none available
system.cpu1.iq.fu_full::SimdDiv                     0      0.00%     13.07% # attempts to use FU when none available
system.cpu1.iq.fu_full::SimdSqrt                    0      0.00%     13.07% # attempts to use FU when none available
system.cpu1.iq.fu_full::SimdFloatAdd                0      0.00%     13.07% # attempts to use FU when none available
system.cpu1.iq.fu_full::SimdFloatAlu                0      0.00%     13.07% # attempts to use FU when none available
system.cpu1.iq.fu_full::SimdFloatCmp                0      0.00%     13.07% # attempts to use FU when none available
system.cpu1.iq.fu_full::SimdFloatCvt                0      0.00%     13.07% # attempts to use FU when none available
system.cpu1.iq.fu_full::SimdFloatDiv                0      0.00%     13.07% # attempts to use FU when none available
system.cpu1.iq.fu_full::SimdFloatMisc               0      0.00%     13.07% # attempts to use FU when none available
system.cpu1.iq.fu_full::SimdFloatMult               0      0.00%     13.07% # attempts to use FU when none available
system.cpu1.iq.fu_full::SimdFloatMultAcc            0      0.00%     13.07% # attempts to use FU when none available
system.cpu1.iq.fu_full::SimdFloatSqrt               0      0.00%     13.07% # attempts to use FU when none available
system.cpu1.iq.fu_full::SimdReduceAdd               0      0.00%     13.07% # attempts to use FU when none available
system.cpu1.iq.fu_full::SimdReduceAlu               0      0.00%     13.07% # attempts to use FU when none available
system.cpu1.iq.fu_full::SimdReduceCmp               0      0.00%     13.07% # attempts to use FU when none available
system.cpu1.iq.fu_full::SimdFloatReduceAdd            0      0.00%     13.07% # attempts to use FU when none available
system.cpu1.iq.fu_full::SimdFloatReduceCmp            0      0.00%     13.07% # attempts to use FU when none available
system.cpu1.iq.fu_full::SimdAes                     0      0.00%     13.07% # attempts to use FU when none available
system.cpu1.iq.fu_full::SimdAesMix                  0      0.00%     13.07% # attempts to use FU when none available
system.cpu1.iq.fu_full::SimdSha1Hash                0      0.00%     13.07% # attempts to use FU when none available
system.cpu1.iq.fu_full::SimdSha1Hash2               0      0.00%     13.07% # attempts to use FU when none available
system.cpu1.iq.fu_full::SimdSha256Hash              0      0.00%     13.07% # attempts to use FU when none available
system.cpu1.iq.fu_full::SimdSha256Hash2             0      0.00%     13.07% # attempts to use FU when none available
system.cpu1.iq.fu_full::SimdShaSigma2               0      0.00%     13.07% # attempts to use FU when none available
system.cpu1.iq.fu_full::SimdShaSigma3               0      0.00%     13.07% # attempts to use FU when none available
system.cpu1.iq.fu_full::SimdPredAlu                 0      0.00%     13.07% # attempts to use FU when none available
system.cpu1.iq.fu_full::MemRead               1433991     78.04%     91.11% # attempts to use FU when none available
[...]
system.cpu1.dcache.WriteReq_misses::.cpu1.data       425525                       # number of WriteReq misses
system.cpu1.dcache.WriteReq_misses::total       425525                       # number of WriteReq misses
system.cpu1.dcache.WriteReq_miss_latency::.cpu1.data  24720203522                       # number of WriteReq miss cycles
system.cpu1.dcache.WriteReq_miss_latency::total  24720203522                       # number of WriteReq miss cycles
system.cpu1.dcache.WriteReq_accesses::.cpu1.data      1860770                       # number of WriteReq accesses(hits+misses)
system.cpu1.dcache.WriteReq_accesses::total      1860770                       # number of WriteReq accesses(hits+misses)
system.cpu1.dcache.WriteReq_miss_rate::.cpu1.data     0.228682                       # miss rate for WriteReq accesses
system.cpu1.dcache.WriteReq_miss_rate::total     0.228682                       # miss rate for WriteReq accesses
system.cpu1.dcache.WriteReq_avg_miss_latency::.cpu1.data 58093.422295                       # average WriteReq miss latency
system.cpu1.dcache.WriteReq_avg_miss_latency::total 58093.422295                       # average WriteReq miss latency
system.cpu1.dcache.WriteReq_mshr_hits::.cpu1.data       335312                       # number of WriteReq MSHR hits
system.cpu1.dcache.WriteReq_mshr_hits::total       335312                       # number of WriteReq MSHR hits
system.cpu1.dcache.WriteReq_mshr_misses::.cpu1.data        90213                       # number of WriteReq MSHR misses
system.cpu1.dcache.WriteReq_mshr_misses::total        90213                       # number of WriteReq MSHR misses
system.cpu1.dcache.WriteReq_mshr_miss_latency::.cpu1.data   3733122994                       # number of WriteReq MSHR miss cycles
system.cpu1.dcache.WriteReq_mshr_miss_latency::total   3733122994                       # number of WriteReq MSHR miss cycles
system.cpu1.dcache.WriteReq_mshr_miss_rate::.cpu1.data     0.048482                       # mshr miss rate for WriteReq accesses
system.cpu1.dcache.WriteReq_mshr_miss_rate::total     0.048482                       # mshr miss rate for WriteReq accesses
system.cpu1.dcache.WriteReq_avg_mshr_miss_latency::.cpu1.data 41381.208850                       # average WriteReq mshr miss latency
system.cpu1.dcache.WriteReq_avg_mshr_miss_latency::total 41381.208850                       # average WriteReq mshr miss latency
system.cpu1.dcache.LoadLockedReq_hits::.cpu1.data        67277                       # number of LoadLockedReq hits
system.cpu1.dcache.LoadLockedReq_hits::total        67277                       # number of LoadLockedReq hits
system.cpu1.dcache.LoadLockedReq_misses::.cpu1.data          811                       # number of LoadLockedReq misses
system.cpu1.dcache.LoadLockedReq_misses::total          811                       # number of LoadLockedReq misses
system.cpu1.dcache.LoadLockedReq_miss_latency::.cpu1.data     39702500                       # number of LoadLockedReq miss cycles
system.cpu1.dcache.LoadLockedReq_miss_latency::total     39702500                       # number of LoadLockedReq miss cycles
system.cpu1.dcache.LoadLockedReq_accesses::.cpu1.data        68088                       # number of LoadLockedReq accesses(hits+misses)
system.cpu1.dcache.LoadLockedReq_accesses::total        68088                       # number of LoadLockedReq accesses(hits+misses)
system.cpu1.dcache.LoadLockedReq_miss_rate::.cpu1.data     0.011911                       # miss rate for LoadLockedReq accesses
system.cpu1.dcache.LoadLockedReq_miss_rate::total     0.011911                       # miss rate for LoadLockedReq accesses
system.cpu1.dcache.LoadLockedReq_avg_miss_latency::.cpu1.data 48954.993835                       # average LoadLockedReq miss latency
system.cpu1.dcache.LoadLockedReq_avg_miss_latency::total 48954.993835                       # average LoadLockedReq miss latency
system.cpu1.dcache.LoadLockedReq_mshr_hits::.cpu1.data          178                       # number of LoadLockedReq MSHR hits
system.cpu1.dcache.LoadLockedReq_mshr_hits::total          178                       # number of LoadLockedReq MSHR hits
system.cpu1.dcache.LoadLockedReq_mshr_misses::.cpu1.data          633                       # number of LoadLockedReq MSHR misses
system.cpu1.dcache.LoadLockedReq_mshr_misses::total          633                       # number of LoadLockedReq MSHR misses
system.cpu1.dcache.LoadLockedReq_mshr_miss_latency::.cpu1.data     24504500                       # number of LoadLockedReq MSHR miss cycles
system.cpu1.dcache.LoadLockedReq_mshr_miss_latency::total     24504500                       # number of LoadLockedReq MSHR miss cycles
system.cpu1.dcache.LoadLockedReq_mshr_miss_rate::.cpu1.data     0.009297                       # mshr miss rate for LoadLockedReq accesses
system.cpu1.dcache.LoadLockedReq_mshr_miss_rate::total     0.009297                       # mshr miss rate for LoadLockedReq accesses
system.cpu1.dcache.LoadLockedReq_avg_mshr_miss_latency::.cpu1.data 38711.690363                       # average LoadLockedReq mshr miss latency
system.cpu1.dcache.LoadLockedReq_avg_mshr_miss_latency::total 38711.690363                       # average LoadLockedReq mshr miss latency
system.cpu1.dcache.StoreCondReq_hits::.cpu1.data        63236                       # number of StoreCondReq hits
system.cpu1.dcache.StoreCondReq_hits::total        63236                       # number of StoreCondReq hits
system.cpu1.dcache.StoreCondReq_misses::.cpu1.data         4599                       # number of StoreCondReq misses
system.cpu1.dcache.StoreCondReq_misses::total         4599                       # number of StoreCondReq misses
system.cpu1.dcache.StoreCondReq_miss_latency::.cpu1.data     24582500                       # number of StoreCondReq miss cycles
system.cpu1.dcache.StoreCondReq_miss_latency::total     24582500                       # number of StoreCondReq miss cycles
system.cpu1.dcache.StoreCondReq_accesses::.cpu1.data        67835                       # number of StoreCondReq accesses(hits+misses)
system.cpu1.dcache.StoreCondReq_accesses::total        67835                       # number of StoreCondReq accesses(hits+misses)
system.cpu1.dcache.StoreCondReq_miss_rate::.cpu1.data     0.067797                       # miss rate for StoreCondReq accesses
system.cpu1.dcache.StoreCondReq_miss_rate::total     0.067797                       # miss rate for StoreCondReq accesses
system.cpu1.dcache.StoreCondReq_avg_miss_latency::.cpu1.data  5345.183736                       # average StoreCondReq miss latency
system.cpu1.dcache.StoreCondReq_avg_miss_latency::total  5345.183736                       # average StoreCondReq miss latency
system.cpu1.dcache.StoreCondReq_mshr_misses::.cpu1.data         4522                       # number of StoreCondReq MSHR misses
system.cpu1.dcache.StoreCondReq_mshr_misses::total         4522                       # number of StoreCondReq MSHR misses
system.cpu1.dcache.StoreCondReq_mshr_miss_latency::.cpu1.data     20093500                       # number of StoreCondReq MSHR miss cycles
system.cpu1.dcache.StoreCondReq_mshr_miss_latency::total     20093500                       # number of StoreCondReq MSHR miss cycles
system.cpu1.dcache.StoreCondReq_mshr_miss_rate::.cpu1.data     0.066662                       # mshr miss rate for StoreCondReq accesses
system.cpu1.dcache.StoreCondReq_mshr_miss_rate::total     0.066662                       # mshr miss rate for StoreCondReq accesses
system.cpu1.dcache.StoreCondReq_avg_mshr_miss_latency::.cpu1.data  4443.498452                       # average StoreCondReq mshr miss latency
system.cpu1.dcache.StoreCondReq_avg_mshr_miss_latency::total  4443.498452                       # average StoreCondReq mshr miss latency
system.cpu1.dcache.StoreCondFailReq_miss_latency::.cpu1.data       842000                       # number of StoreCondFailReq miss cycles
system.cpu1.dcache.StoreCondFailReq_miss_latency::total       842000                       # number of StoreCondFailReq miss cycles
system.cpu1.dcache.StoreCondFailReq_avg_miss_latency::.cpu1.data          inf                       # average StoreCondFailReq miss latency
system.cpu1.dcache.StoreCondFailReq_avg_miss_latency::total          inf                       # average StoreCondFailReq miss latency
system.cpu1.dcache.StoreCondFailReq_mshr_miss_latency::.cpu1.data       809000                       # number of StoreCondFailReq MSHR miss cycles
system.cpu1.dcache.StoreCondFailReq_mshr_miss_latency::total       809000                       # number of StoreCondFailReq MSHR miss cycles
system.cpu1.dcache.StoreCondFailReq_avg_mshr_miss_latency::.cpu1.data          inf                       # average StoreCondFailReq mshr miss latency
system.cpu1.dcache.StoreCondFailReq_avg_mshr_miss_latency::total          inf                       # average StoreCondFailReq mshr miss latency
system.cpu1.dcache.SwapReq_hits::.cpu1.data         1511                       # number of SwapReq hits
system.cpu1.dcache.SwapReq_hits::total           1511                       # number of SwapReq hits
system.cpu1.dcache.SwapReq_misses::.cpu1.data         2820                       # number of SwapReq misses
system.cpu1.dcache.SwapReq_misses::total         2820                       # number of SwapReq misses
system.cpu1.dcache.SwapReq_miss_latency::.cpu1.data     63951999                       # number of SwapReq miss cycles
system.cpu1.dcache.SwapReq_miss_latency::total     63951999                       # number of SwapReq miss cycles
system.cpu1.dcache.SwapReq_accesses::.cpu1.data         4331                       # number of SwapReq accesses(hits+misses)
system.cpu1.dcache.SwapReq_accesses::total         4331                       # number of SwapReq accesses(hits+misses)
system.cpu1.dcache.SwapReq_miss_rate::.cpu1.data     0.651120                       # miss rate for SwapReq accesses
system.cpu1.dcache.SwapReq_miss_rate::total     0.651120                       # miss rate for SwapReq accesses
system.cpu1.dcache.SwapReq_avg_miss_latency::.cpu1.data 22678.013830                       # average SwapReq miss latency
system.cpu1.dcache.SwapReq_avg_miss_latency::total 22678.013830                       # average SwapReq miss latency
system.cpu1.dcache.SwapReq_mshr_hits::.cpu1.data            1                       # number of SwapReq MSHR hits
system.cpu1.dcache.SwapReq_mshr_hits::total            1                       # number of SwapReq MSHR hits
system.cpu1.dcache.SwapReq_mshr_misses::.cpu1.data         2819                       # number of SwapReq MSHR misses
system.cpu1.dcache.SwapReq_mshr_misses::total         2819                       # number of SwapReq MSHR misses
system.cpu1.dcache.SwapReq_mshr_miss_latency::.cpu1.data     61127999                       # number of SwapReq MSHR miss cycles
system.cpu1.dcache.SwapReq_mshr_miss_latency::total     61127999                       # number of SwapReq MSHR miss cycles
system.cpu1.dcache.SwapReq_mshr_miss_rate::.cpu1.data     0.650889                       # mshr miss rate for SwapReq accesses
system.cpu1.dcache.SwapReq_mshr_miss_rate::total     0.650889                       # mshr miss rate for SwapReq accesses
system.cpu1.dcache.SwapReq_avg_mshr_miss_latency::.cpu1.data 21684.284853                       # average SwapReq mshr miss latency
system.cpu1.dcache.SwapReq_avg_mshr_miss_latency::total 21684.284853                       # average SwapReq mshr miss latency
system.cpu1.dcache.tags.pwrStateResidencyTicks::UNDEFINED  71033901500                       # Cumulative time (in ticks) in various power states
system.cpu1.dcache.tags.tagsinuse           31.131443                       # Cycle average of tags in use
system.cpu1.dcache.tags.total_refs           17678410                       # Total number of references to valid blocks.
system.cpu1.dcache.tags.sampled_refs          1479223                       # Sample count of references to valid blocks.
system.cpu1.dcache.tags.avg_refs            11.951146                       # Average number of references to valid blocks.
system.cpu1.dcache.tags.warmup_cycle                0                       # Cycle when the warmup percentage was hit.
system.cpu1.dcache.tags.occ_blocks::.cpu1.data    31.131443                       # Average occupied blocks per requestor
system.cpu1.dcache.tags.occ_percent::.cpu1.data     0.972858                       # Average percentage of cache occupancy
system.cpu1.dcache.tags.occ_percent::total     0.972858                       # Average percentage of cache occupancy
system.cpu1.dcache.tags.occ_task_id_blocks::1024           28                       # Occupied blocks per task id
system.cpu1.dcache.tags.age_task_id_blocks_1024::1           28                       # Occupied blocks per task id
system.cpu1.dcache.tags.occ_task_id_percent::1024     0.875000                       # Percentage of cache occupancy per task id
system.cpu1.dcache.tags.tag_accesses         45223076                       # Number of tag accesses
system.cpu1.dcache.tags.data_accesses        45223076                       # Number of data accesses
system.cpu_clk_domain.clock                       500                       # Clock period in ticks
system.tol2bus.pwrStateResidencyTicks::UNDEFINED  71033901500                       # Cumulative time (in ticks) in various power states
system.tol2bus.trans_dist::ReadResp           3057636                       # Transaction distribution
system.tol2bus.trans_dist::WritebackDirty       818961                       # Transaction distribution
system.tol2bus.trans_dist::WritebackClean      2682039                       # Transaction distribution
system.tol2bus.trans_dist::CleanEvict         5922285                       # Transaction distribution
system.tol2bus.trans_dist::HardPFReq          4546150                       # Transaction distribution
system.tol2bus.trans_dist::HardPFResp               2                       # Transaction distribution
system.tol2bus.trans_dist::UpgradeReq           49503                       # Transaction distribution
system.tol2bus.trans_dist::SCUpgradeReq          9190                       # Transaction distribution
system.tol2bus.trans_dist::UpgradeResp          58693                       # Transaction distribution
system.tol2bus.trans_dist::SCUpgradeFailReq           64                       # Transaction distribution
system.tol2bus.trans_dist::UpgradeFailResp           64                       # Transaction distribution
system.tol2bus.trans_dist::ReadExReq           170581                       # Transaction distribution
system.tol2bus.trans_dist::ReadExResp          170581                       # Transaction distribution
system.tol2bus.trans_dist::ReadCleanReq        119518                       # Transaction distribution
system.tol2bus.trans_dist::ReadSharedReq      2938118                       # Transaction distribution
system.tol2bus.trans_dist::InvalidateReq          671                       # Transaction distribution
system.tol2bus.trans_dist::InvalidateResp          671                       # Transaction distribution
system.tol2bus.pkt_count_system.cpu0.icache.mem_side::system.l2.cpu_side       299729                       # Packet count per connected master and slave (bytes)
system.tol2bus.pkt_count_system.cpu0.dcache.mem_side::system.l2.cpu_side      4846374                       # Packet count per connected master and slave (bytes)
system.tol2bus.pkt_count_system.cpu1.icache.mem_side::system.l2.cpu_side        58620                       # Packet count per connected master and slave (bytes)
system.tol2bus.pkt_count_system.cpu1.dcache.mem_side::system.l2.cpu_side      4393520                       # Packet count per connected master and slave (bytes)
system.tol2bus.pkt_count::total               9598243                       # Packet count per connected master and slave (bytes)
system.tol2bus.pkt_size_system.cpu0.icache.mem_side::system.l2.cpu_side     12784064                       # Cumulative packet size per connected master and slave (bytes)
system.tol2bus.pkt_size_system.cpu0.dcache.mem_side::system.l2.cpu_side    203534912                       # Cumulative packet size per connected master and slave (bytes)
system.tol2bus.pkt_size_system.cpu1.icache.mem_side::system.l2.cpu_side      2501120                       # Cumulative packet size per connected master and slave (bytes)
system.tol2bus.pkt_size_system.cpu1.dcache.mem_side::system.l2.cpu_side    184244736                       # Cumulative packet size per connected master and slave (bytes)
system.tol2bus.pkt_size::total              403064832                       # Cumulative packet size per connected master and slave (bytes)
system.tol2bus.snoops                        10946486                       # Total snoops (count)
system.tol2bus.snoopTraffic                  27609408                       # Total snoop traffic (bytes)
system.tol2bus.snoop_fanout::samples         14107516                       # Request fanout histogram
system.tol2bus.snoop_fanout::mean            0.201062                       # Request fanout histogram
system.tol2bus.snoop_fanout::stdev           0.424376                       # Request fanout histogram
system.tol2bus.snoop_fanout::underflows             0      0.00%      0.00% # Request fanout histogram
system.tol2bus.snoop_fanout::0               11407862     80.86%     80.86% # Request fanout histogram
system.tol2bus.snoop_fanout::1                2563257     18.17%     99.03% # Request fanout histogram
system.tol2bus.snoop_fanout::2                 135967      0.96%    100.00% # Request fanout histogram
system.tol2bus.snoop_fanout::3                    430      0.00%    100.00% # Request fanout histogram
system.tol2bus.snoop_fanout::4                      0      0.00%    100.00% # Request fanout histogram
system.tol2bus.snoop_fanout::5                      0      0.00%    100.00% # Request fanout histogram
system.tol2bus.snoop_fanout::6                      0      0.00%    100.00% # Request fanout histogram
system.tol2bus.snoop_fanout::7                      0      0.00%    100.00% # Request fanout histogram
system.tol2bus.snoop_fanout::8                      0      0.00%    100.00% # Request fanout histogram
system.tol2bus.snoop_fanout::overflows              0      0.00%    100.00% # Request fanout histogram
system.tol2bus.snoop_fanout::min_value              0                       # Request fanout histogram
system.tol2bus.snoop_fanout::max_value              3                       # Request fanout histogram
system.tol2bus.snoop_fanout::total           14107516                       # Request fanout histogram
system.tol2bus.reqLayer0.occupancy         6371406039                       # Layer occupancy (ticks)
system.tol2bus.reqLayer0.utilization              9.0                       # Layer utilization (%)
system.tol2bus.respLayer1.occupancy        2465748209                       # Layer occupancy (ticks)
system.tol2bus.respLayer1.utilization             3.5                       # Layer utilization (%)
system.tol2bus.respLayer0.occupancy         150058317                       # Layer occupancy (ticks)
system.tol2bus.respLayer0.utilization             0.2                       # Layer utilization (%)
system.tol2bus.respLayer3.occupancy        2239691256                       # Layer occupancy (ticks)
system.tol2bus.respLayer3.utilization             3.2                       # Layer utilization (%)
system.tol2bus.respLayer2.occupancy          29515588                       # Layer occupancy (ticks)
system.tol2bus.respLayer2.utilization             0.0                       # Layer utilization (%)
system.tol2bus.snoopLayer0.occupancy             3000                       # Layer occupancy (ticks)
system.tol2bus.snoopLayer0.utilization            0.0                       # Layer utilization (%)

---------- End Simulation Statistics   ----------
