gem5 Simulator System.  http://gem5.org
gem5 is copyrighted software; use the --copyright option for details.

gem5 compiled Mar 27 2020 00:28:59
gem5 started Apr 28 2020 12:46:44
gem5 executing on muhammet, pid 19518
command line: /home/muhammet/Desktop/gem5/build/RISCV/gem5.fast -re --outdir=/home/muhammet/Desktop/gem5/results/bfs/gowalla.el/prefetch_IndirectMemoryPrefetcher_BRRIPRP --stdout-file=output.txt --stderr-file=error.txt /home/muhammet/Desktop/gem5/configs/example/my_se.py -c /home/muhammet/Desktop/gem5/gapbs/bfs -o '-f /home/muhammet/Desktop/gem5/gapbs/test/graphs/gowalla.el' --caches --l1d_size=2kB --l1i_size=2kB --cpu-type=DerivO3CPU -n 4 --mem-size=512MB --l2cache --l2_size=4kB --l2-hwp-type=IndirectMemoryPrefetcher --l2-replacement-policy=BRRIPRP --l1i_mshrs=4 --l1d_mshrs=4 --l2_mshrs=20 --l1i_write_buffers=8 --l1d_write_buffers=8 --l2_write_buffers=8

Warning: l2-hwp-type is set ( IndirectMemoryPrefetcher ), but the current l2 has a default Hardware Prefetcher of type <class 'm5.params.NullSimObject'> , using the specified by the flag option.
Global frequency set at 1000000000000 ticks per second
**** REAL SIMULATION ****
Read Time:           1.54407
Build Time:          0.18524
Graph has 196591 nodes and 1900654 directed edges for degree: 9
Source:                39292
    i                0.00056
   td         37     0.00002
   td      15618     0.00109
    e                0.00014
   bu      85571     0.00346
   bu      72745     0.00162
   bu      19085     0.00052
   bu       2989     0.00023
    c                0.00030
   td        450     0.00009
   td         74     0.00003
   td         20     0.00002
   td          1     0.00001
   td          0     0.00001
Trial Time:          0.00861
Source:               172091
    i                0.00053
   td          5     0.00002
   td         28     0.00002
   td        306     0.00004
   td      30162     0.00163
    e                0.00030
   bu      99792     0.00288
   bu      54088     0.00111
   bu      10392     0.00036
    c                0.00039
   td       1517     0.00024
   td        240     0.00005
   td         46     0.00002
   td         13     0.00002
   td          1     0.00001
   td          0     0.00001
Trial Time:          0.00816
Source:                 3424
    i                0.00054
   td          2     0.00002
   td       1538     0.00009
   td      35165     0.00244
    e                0.00038
   bu      95117     0.00279
   bu      51507     0.00111
   bu      11304     0.00038
   bu       1641     0.00021
    c                0.00028
   td        255     0.00006
   td         48     0.00002
   td         13     0.00002
   td          0     0.00001
Trial Time:          0.00884
Source:                53228
    i                0.00053
   td          7     0.00002
   td      14847     0.00103
    e                0.00013
   bu      83448     0.00352
   bu      74768     0.00167
   bu      19833     0.00053
   bu       3121     0.00024
    c                0.00030
   td        467     0.00009
   td         78     0.00003
   td         20     0.00002
   td          1     0.00001
   td          0     0.00001
Trial Time:          0.00863
Source:                54475
    i                0.00054
   td          9     0.00002
   td        134     0.00003
   td      21107     0.00144
    e                0.00022
   bu      94268     0.00310
   bu      64203     0.00135
   bu      14183     0.00042
   bu       2238     0.00022
    c                0.00029
   td        362     0.00007
   td         65     0.00002
   td         20     0.00002
   td          1     0.00001
   td          0     0.00001
Trial Time:          0.00827
Source:                80385
    i                0.00052
   td          3     0.00002
   td        196     0.00002
   td       4658     0.00028
    e                0.00006
   bu      64649     0.00393
   bu      88631     0.00207
   bu      31819     0.00068
   bu       5721     0.00026
    c                0.00033
   td        771     0.00014
   td        112     0.00003
   td         29     0.00002
   td          1     0.00002
   td          0     0.00001
Trial Time:          0.00891
Source:               182281
    i                0.00054
   td          1     0.00002
   td          2     0.00001
   td         74     0.00002
   td       3875     0.00036
    e                0.00005
   bu      73281     0.00377
   bu      86169     0.00192
   bu      27775     0.00062
   bu       4629     0.00025
    c                0.00032
   td        650     0.00011
   td        107     0.00003
   td         26     0.00002
   td          1     0.00001
   td          0     0.00001
Trial Time:          0.00860
Source:                46867
    i                0.00055
   td          7     0.00002
   td       4037     0.00026
    e                0.00004
   bu      65750     0.00390
   bu      91822     0.00207
   bu      29246     0.00066
   bu       4887     0.00026
    c                0.00033
   td        695     0.00012
   td        116     0.00003
   td         27     0.00002
   td          3     0.00002
   td          0     0.00001
Trial Time:          0.00878
Source:               101322
    i                0.00055
   td         32     0.00002
   td        281     0.00003
   td      11555     0.00061
    e                0.00013
   bu      73175     0.00355
   bu      84986     0.00176
   bu      22504     0.00056
   bu       3500     0.00024
    c                0.00031
   td        462     0.00009
   td         73     0.00003
   td         20     0.00002
   td          2     0.00001
   td          0     0.00001
Trial Time:          0.00842
Source:               167256
    i                0.00055
   td          2     0.00002
   td         11     0.00002
   td         90     0.00002
   td       7662     0.00040
    e                0.00010
   bu      79213     0.00358
   bu      81576     0.00176
   bu      23657     0.00057
   bu       3725     0.00024
    c                0.00031
   td        533     0.00010
   td         96     0.00003
   td         24     0.00002
   td          1     0.00001
   td          0     0.00001
Trial Time:          0.00826
Source:                34554
    i                0.00051
   td         23     0.00002
   td      15746     0.00107
    e                0.00014
   bu      84542     0.00349
   bu      73346     0.00164
   bu      19323     0.00052
   bu       3056     0.00023
    c                0.00030
   td        457     0.00008
   td         76     0.00003
   td         20     0.00002
   td          1     0.00001
   td          0     0.00001
Trial Time:          0.00857
Source:                21915
    i                0.00055
   td          2     0.00002
   td      10190     0.00049
    e                0.00008
   bu      70238     0.00367
   bu      87495     0.00184
   bu      24279     0.00059
   bu       3795     0.00024
    c                0.00031
   td        493     0.00010
   td         76     0.00003
   td         20     0.00002
   td          2     0.00001
   td          0     0.00001
Trial Time:          0.00845
Source:               180954
    i                0.00057
   td          7     0.00002
   td         20     0.00002
   td        225     0.00002
   td       7633     0.00046
    e                0.00008
   bu      74836     0.00370
   bu      83541     0.00183
   bu      25300     0.00059
   bu       4294     0.00025
    c                0.00031
   td        604     0.00011
   td        105     0.00003
   td         21     0.00002
   td          4     0.00002
   td          0     0.00001
Trial Time:          0.00855
Source:               159319
    i                0.00053
   td          4     0.00002
   td         39     0.00002
   td      15317     0.00103
    e                0.00013
   bu      84719     0.00350
   bu      73487     0.00163
   bu      19417     0.00052
   bu       3047     0.00024
    c                0.00030
   td        464     0.00008
   td         75     0.00003
   td         20     0.00002
   td          1     0.00001
   td          0     0.00001
Trial Time:          0.00858
Source:                19342
    i                0.00055
   td          2     0.00002
   td      10186     0.00049
    e                0.00009
   bu      70205     0.00367
   bu      87521     0.00184
   bu      24290     0.00059
   bu       3795     0.00024
    c                0.00031
   td        493     0.00010
   td         76     0.00003
   td         20     0.00002
   td          2     0.00002
   td          0     0.00001
Trial Time:          0.00845
Source:               156623
    i                0.00051
   td          1     0.00002
   td          3     0.00002
   td         33     0.00002
   td      20375     0.00134
    e                0.00019
   bu      87145     0.00332
   bu      68078     0.00150
   bu      17689     0.00049
   bu       2762     0.00023
    c                0.00030
   td        410     0.00008
   td         73     0.00003
   td         20     0.00002
   td          1     0.00001
   td          0     0.00001
Trial Time:          0.00862
Average Time:        0.00854
Exiting @ tick 1956008869000 because exiting with last active thread context
