
---------- Begin Simulation Statistics ----------
final_tick                               1957566787500                       # Number of ticks from beginning of simulation (restored from checkpoints and never reset)
host_inst_rate                                  82315                       # Simulator instruction rate (inst/s)
host_mem_usage                                 702084                       # Number of bytes of host memory used
host_op_rate                                    82581                       # Simulator op (including micro ops) rate (op/s)
host_seconds                                 28609.25                       # Real time elapsed on the host
host_tick_rate                               68424272                       # Simulator tick rate (ticks/s)
sim_freq                                 1000000000000                       # Frequency of simulated ticks
sim_insts                                  2354976544                       # Number of instructions simulated
sim_ops                                    2362585463                       # Number of ops (including micro ops) simulated
sim_seconds                                  1.957567                       # Number of seconds simulated
sim_ticks                                1957566787500                       # Number of ticks simulated
system.cpu0.branchPred.BTBCorrect                   0                       # Number of correct BTB predictions (this stat may not work properly.
system.cpu0.branchPred.BTBHitPct            87.918374                       # BTB Hit Percentage
system.cpu0.branchPred.BTBHits              301184944                       # Number of BTB hits
system.cpu0.branchPred.BTBLookups           342573380                       # Number of BTB lookups
system.cpu0.branchPred.RASInCorrect                 0                       # Number of incorrect RAS predictions.
system.cpu0.branchPred.condIncorrect         28094018                       # Number of conditional branches incorrect
system.cpu0.branchPred.condPredicted        470274159                       # Number of conditional branches predicted
system.cpu0.branchPred.indirectHits          40239402                       # Number of indirect target hits.
system.cpu0.branchPred.indirectLookups       40939229                       # Number of indirect predictor lookups.
system.cpu0.branchPred.indirectMisses          699827                       # Number of indirect misses.
system.cpu0.branchPred.lookups              597391573                       # Number of BP lookups
system.cpu0.branchPred.usedRAS                      0                       # Number of times the RAS was used to get a target.
system.cpu0.branchPredindirectMispredicted      3957571                       # Number of mispredicted indirect branches.
system.cpu0.commit.amos                       3801869                       # Number of atomic instructions committed
system.cpu0.commit.branchMispredicts         18048438                       # The number of times a branch was mispredicted
system.cpu0.commit.branches                 555050578                       # Number of branches committed
system.cpu0.commit.bw_lim_events             60508331                       # number cycles where commit BW limit reached
system.cpu0.commit.commitNonSpecStalls       11419545                       # The number of times commit has been forced to stall to communicate backwards
system.cpu0.commit.commitSquashedInsts      119720006                       # The number of squashed insts skipped by commit
system.cpu0.commit.committedInsts          2224898912                       # Number of instructions committed
system.cpu0.commit.committedOps            2228706083                       # Number of ops (including micro ops) committed
system.cpu0.commit.committed_per_cycle::samples   3623082275                       # Number of insts commited each cycle
system.cpu0.commit.committed_per_cycle::mean     0.615141                       # Number of insts commited each cycle
system.cpu0.commit.committed_per_cycle::stdev     1.378648                       # Number of insts commited each cycle
system.cpu0.commit.committed_per_cycle::underflows            0      0.00%      0.00% # Number of insts commited each cycle
system.cpu0.commit.committed_per_cycle::0   2553648375     70.48%     70.48% # Number of insts commited each cycle
system.cpu0.commit.committed_per_cycle::1    632996598     17.47%     87.95% # Number of insts commited each cycle
system.cpu0.commit.committed_per_cycle::2    151242387      4.17%     92.13% # Number of insts commited each cycle
system.cpu0.commit.committed_per_cycle::3    146556621      4.05%     96.17% # Number of insts commited each cycle
system.cpu0.commit.committed_per_cycle::4     45652989      1.26%     97.43% # Number of insts commited each cycle
system.cpu0.commit.committed_per_cycle::5     15969872      0.44%     97.87% # Number of insts commited each cycle
system.cpu0.commit.committed_per_cycle::6      8522830      0.24%     98.11% # Number of insts commited each cycle
system.cpu0.commit.committed_per_cycle::7      7984272      0.22%     98.33% # Number of insts commited each cycle
system.cpu0.commit.committed_per_cycle::8     60508331      1.67%    100.00% # Number of insts commited each cycle
system.cpu0.commit.committed_per_cycle::overflows            0      0.00%    100.00% # Number of insts commited each cycle
system.cpu0.commit.committed_per_cycle::min_value            0                       # Number of insts commited each cycle
system.cpu0.commit.committed_per_cycle::max_value            8                       # Number of insts commited each cycle
system.cpu0.commit.committed_per_cycle::total   3623082275                       # Number of insts commited each cycle
system.cpu0.commit.fp_insts                        50                       # Number of committed floating point instructions.
system.cpu0.commit.function_calls            44165750                       # Number of function calls committed.
system.cpu0.commit.int_insts               2151000616                       # Number of committed integer instructions.
system.cpu0.commit.loads                    691562145                       # Number of loads committed
system.cpu0.commit.membars                    7608915                       # Number of memory barriers committed
system.cpu0.commit.op_class_0::No_OpClass      7608921      0.34%      0.34% # Class of committed instruction
system.cpu0.commit.op_class_0::IntAlu      1238833742     55.59%     55.93% # Class of committed instruction
system.cpu0.commit.op_class_0::IntMult       18318071      0.82%     56.75% # Class of committed instruction
system.cpu0.commit.op_class_0::IntDiv         3801411      0.17%     56.92% # Class of committed instruction
system.cpu0.commit.op_class_0::FloatAdd             0      0.00%     56.92% # Class of committed instruction
system.cpu0.commit.op_class_0::FloatCmp             4      0.00%     56.92% # Class of committed instruction
system.cpu0.commit.op_class_0::FloatCvt            12      0.00%     56.92% # Class of committed instruction
system.cpu0.commit.op_class_0::FloatMult            0      0.00%     56.92% # Class of committed instruction
system.cpu0.commit.op_class_0::FloatMultAcc            0      0.00%     56.92% # Class of committed instruction
system.cpu0.commit.op_class_0::FloatDiv             2      0.00%     56.92% # Class of committed instruction
system.cpu0.commit.op_class_0::FloatMisc            4      0.00%     56.92% # Class of committed instruction
system.cpu0.commit.op_class_0::FloatSqrt            0      0.00%     56.92% # Class of committed instruction
system.cpu0.commit.op_class_0::SimdAdd              0      0.00%     56.92% # Class of committed instruction
system.cpu0.commit.op_class_0::SimdAddAcc            0      0.00%     56.92% # Class of committed instruction
system.cpu0.commit.op_class_0::SimdAlu              0      0.00%     56.92% # Class of committed instruction
system.cpu0.commit.op_class_0::SimdCmp              0      0.00%     56.92% # Class of committed instruction
system.cpu0.commit.op_class_0::SimdCvt              0      0.00%     56.92% # Class of committed instruction
system.cpu0.commit.op_class_0::SimdMisc             0      0.00%     56.92% # Class of committed instruction
system.cpu0.commit.op_class_0::SimdMult             0      0.00%     56.92% # Class of committed instruction
system.cpu0.commit.op_class_0::SimdMultAcc            0      0.00%     56.92% # Class of committed instruction
system.cpu0.commit.op_class_0::SimdShift            0      0.00%     56.92% # Class of committed instruction
system.cpu0.commit.op_class_0::SimdShiftAcc            0      0.00%     56.92% # Class of committed instruction
system.cpu0.commit.op_class_0::SimdDiv              0      0.00%     56.92% # Class of committed instruction
system.cpu0.commit.op_class_0::SimdSqrt             0      0.00%     56.92% # Class of committed instruction
system.cpu0.commit.op_class_0::SimdFloatAdd            0      0.00%     56.92% # Class of committed instruction
system.cpu0.commit.op_class_0::SimdFloatAlu            0      0.00%     56.92% # Class of committed instruction
system.cpu0.commit.op_class_0::SimdFloatCmp            0      0.00%     56.92% # Class of committed instruction
system.cpu0.commit.op_class_0::SimdFloatCvt            0      0.00%     56.92% # Class of committed instruction
system.cpu0.commit.op_class_0::SimdFloatDiv            0      0.00%     56.92% # Class of committed instruction
system.cpu0.commit.op_class_0::SimdFloatMisc            0      0.00%     56.92% # Class of committed instruction
system.cpu0.commit.op_class_0::SimdFloatMult            0      0.00%     56.92% # Class of committed instruction
system.cpu0.commit.op_class_0::SimdFloatMultAcc            0      0.00%     56.92% # Class of committed instruction
system.cpu0.commit.op_class_0::SimdFloatSqrt            0      0.00%     56.92% # Class of committed instruction
system.cpu0.commit.op_class_0::SimdReduceAdd            0      0.00%     56.92% # Class of committed instruction
system.cpu0.commit.op_class_0::SimdReduceAlu            0      0.00%     56.92% # Class of committed instruction
system.cpu0.commit.op_class_0::SimdReduceCmp            0      0.00%     56.92% # Class of committed instruction
system.cpu0.commit.op_class_0::SimdFloatReduceAdd            0      0.00%     56.92% # Class of committed instruction
system.cpu0.commit.op_class_0::SimdFloatReduceCmp            0      0.00%     56.92% # Class of committed instruction
system.cpu0.commit.op_class_0::SimdAes              0      0.00%     56.92% # Class of committed instruction
system.cpu0.commit.op_class_0::SimdAesMix            0      0.00%     56.92% # Class of committed instruction
system.cpu0.commit.op_class_0::SimdSha1Hash            0      0.00%     56.92% # Class of committed instruction
system.cpu0.commit.op_class_0::SimdSha1Hash2            0      0.00%     56.92% # Class of committed instruction
system.cpu0.commit.op_class_0::SimdSha256Hash            0      0.00%     56.92% # Class of committed instruction
system.cpu0.commit.op_class_0::SimdSha256Hash2            0      0.00%     56.92% # Class of committed instruction
system.cpu0.commit.op_class_0::SimdShaSigma2            0      0.00%     56.92% # Class of committed instruction
system.cpu0.commit.op_class_0::SimdShaSigma3            0      0.00%     56.92% # Class of committed instruction
system.cpu0.commit.op_class_0::SimdPredAlu            0      0.00%     56.92% # Class of committed instruction
system.cpu0.commit.op_class_0::MemRead      695364006     31.20%     88.12% # Class of committed instruction
system.cpu0.commit.op_class_0::MemWrite     264779882     11.88%    100.00% # Class of committed instruction
system.cpu0.commit.op_class_0::FloatMemRead            8      0.00%    100.00% # Class of committed instruction
system.cpu0.commit.op_class_0::FloatMemWrite           20      0.00%    100.00% # Class of committed instruction
system.cpu0.commit.op_class_0::IprAccess            0      0.00%    100.00% # Class of committed instruction
system.cpu0.commit.op_class_0::InstPrefetch            0      0.00%    100.00% # Class of committed instruction
system.cpu0.commit.op_class_0::total       2228706083                       # Class of committed instruction
system.cpu0.commit.refs                     960143916                       # Number of memory references committed
system.cpu0.commit.swp_count                        0                       # Number of s/w prefetches committed
system.cpu0.commit.vec_insts                        0                       # Number of committed Vector instructions.
system.cpu0.committedInsts                 2224898912                       # Number of Instructions Simulated
system.cpu0.committedOps                   2228706083                       # Number of Ops (including micro ops) Simulated
system.cpu0.cpi                              1.756138                       # CPI: Cycles Per Instruction
system.cpu0.cpi_total                        1.756138                       # CPI: Total CPI of All Threads
system.cpu0.decode.BlockedCycles            666010699                       # Number of cycles decode is blocked
system.cpu0.decode.BranchMispred             10058370                       # Number of times decode detected a branch misprediction
system.cpu0.decode.BranchResolved           296553006                       # Number of times decode resolved a branch
system.cpu0.decode.DecodedInsts            2391739217                       # Number of instructions handled by decode
system.cpu0.decode.IdleCycles              1327861980                       # Number of cycles decode is idle
system.cpu0.decode.RunCycles               1628901023                       # Number of cycles decode is running
system.cpu0.decode.SquashCycles              18064316                       # Number of cycles decode is squashing
system.cpu0.decode.SquashedInsts             24681982                       # Number of squashed instructions handled by decode
system.cpu0.decode.UnblockCycles             11100235                       # Number of cycles decode is unblocking
system.cpu0.dtb.accesses                            0                       # DTB accesses
system.cpu0.dtb.hits                                0                       # DTB hits
system.cpu0.dtb.misses                              0                       # DTB misses
system.cpu0.dtb.read_accesses                       0                       # DTB read accesses
system.cpu0.dtb.read_hits                           0                       # DTB read hits
system.cpu0.dtb.read_misses                         0                       # DTB read misses
system.cpu0.dtb.write_accesses                      0                       # DTB write accesses
system.cpu0.dtb.write_hits                          0                       # DTB write hits
system.cpu0.dtb.write_misses                        0                       # DTB write misses
system.cpu0.fetch.Branches                  597391573                       # Number of branches that fetch encountered
system.cpu0.fetch.CacheLines                407868019                       # Number of cache lines fetched
system.cpu0.fetch.Cycles                   2322131306                       # Number of cycles fetch has run and was not squashing or blocked
system.cpu0.fetch.IcacheSquashes             10854583                       # Number of outstanding Icache misses that were squashed
system.cpu0.fetch.IcacheWaitRetryStallCycles           60                       # Number of stall cycles due to full MSHR
system.cpu0.fetch.Insts                    2454551924                       # Number of instructions fetch has processed
system.cpu0.fetch.MiscStallCycles                  13                       # Number of cycles fetch has spent waiting on interrupts, or bad addresses, or out of MSHRs
system.cpu0.fetch.PendingTrapStallCycles           48                       # Number of stall cycles due to pending traps
system.cpu0.fetch.SquashCycles               56219808                       # Number of cycles fetch has spent squashing
system.cpu0.fetch.branchRate                 0.152894                       # Number of branch fetches per cycle
system.cpu0.fetch.icacheStallCycles        1301696922                       # Number of cycles fetch is stalled on an Icache miss
system.cpu0.fetch.predictedBranches         341424346                       # Number of branches that fetch has predicted taken
system.cpu0.fetch.rate                       0.628208                       # Number of inst fetches per cycle
system.cpu0.fetch.rateDist::samples        3651938253                       # Number of instructions fetched each cycle (Total)
system.cpu0.fetch.rateDist::mean             0.673964                       # Number of instructions fetched each cycle (Total)
system.cpu0.fetch.rateDist::stdev            0.925017                       # Number of instructions fetched each cycle (Total)
system.cpu0.fetch.rateDist::underflows              0      0.00%      0.00% # Number of instructions fetched each cycle (Total)
system.cpu0.fetch.rateDist::0              1938367285     53.08%     53.08% # Number of instructions fetched each cycle (Total)
system.cpu0.fetch.rateDist::1              1256554963     34.41%     87.49% # Number of instructions fetched each cycle (Total)
system.cpu0.fetch.rateDist::2               238839535      6.54%     94.03% # Number of instructions fetched each cycle (Total)
system.cpu0.fetch.rateDist::3               171207941      4.69%     98.71% # Number of instructions fetched each cycle (Total)
system.cpu0.fetch.rateDist::4                34726427      0.95%     99.66% # Number of instructions fetched each cycle (Total)
system.cpu0.fetch.rateDist::5                 6555239      0.18%     99.84% # Number of instructions fetched each cycle (Total)
system.cpu0.fetch.rateDist::6                 1879395      0.05%     99.90% # Number of instructions fetched each cycle (Total)
system.cpu0.fetch.rateDist::7                     417      0.00%     99.90% # Number of instructions fetched each cycle (Total)
system.cpu0.fetch.rateDist::8                 3807051      0.10%    100.00% # Number of instructions fetched each cycle (Total)
system.cpu0.fetch.rateDist::overflows               0      0.00%    100.00% # Number of instructions fetched each cycle (Total)
system.cpu0.fetch.rateDist::min_value               0                       # Number of instructions fetched each cycle (Total)
system.cpu0.fetch.rateDist::max_value               8                       # Number of instructions fetched each cycle (Total)
system.cpu0.fetch.rateDist::total          3651938253                       # Number of instructions fetched each cycle (Total)
system.cpu0.fp_regfile_reads                       44                       # number of floating regfile reads
system.cpu0.fp_regfile_writes                      23                       # number of floating regfile writes
system.cpu0.idleCycles                      255290920                       # Total number of cycles that the CPU has spent unscheduled due to idling
system.cpu0.iew.branchMispredicts            18283360                       # Number of branch mispredicts detected at execute
system.cpu0.iew.exec_branches               569537176                       # Number of branches executed
system.cpu0.iew.exec_nop                            0                       # number of nop insts executed
system.cpu0.iew.exec_rate                    0.593014                       # Inst execution rate
system.cpu0.iew.exec_refs                  1010812178                       # number of memory reference insts executed
system.cpu0.iew.exec_stores                 278276655                       # Number of stores executed
system.cpu0.iew.exec_swp                            0                       # number of swp insts executed
system.cpu0.iew.iewBlockCycles              547803879                       # Number of cycles IEW is blocking
system.cpu0.iew.iewDispLoadInsts            736940337                       # Number of dispatched load instructions
system.cpu0.iew.iewDispNonSpecInsts           5060575                       # Number of dispatched non-speculative instructions
system.cpu0.iew.iewDispSquashedInsts         10375701                       # Number of squashed instructions skipped by dispatch
system.cpu0.iew.iewDispStoreInsts           282878753                       # Number of dispatched store instructions
system.cpu0.iew.iewDispatchedInsts         2348372048                       # Number of instructions dispatched to IQ
system.cpu0.iew.iewExecLoadInsts            732535523                       # Number of load instructions executed
system.cpu0.iew.iewExecSquashedInsts         10606444                       # Number of squashed instructions skipped in execute
system.cpu0.iew.iewExecutedInsts           2317041871                       # Number of executed instructions
system.cpu0.iew.iewIQFullEvents               3464996                       # Number of times the IQ has become full, causing a stall
system.cpu0.iew.iewIdleCycles                       0                       # Number of cycles IEW is idle
system.cpu0.iew.iewLSQFullEvents              8294448                       # Number of times the LSQ has become full, causing a stall
system.cpu0.iew.iewSquashCycles              18064316                       # Number of cycles IEW is squashing
system.cpu0.iew.iewUnblockCycles             16156817                       # Number of cycles IEW is unblocking
system.cpu0.iew.lsq.thread0.blockedLoads            0                       # Number of blocked loads due to partial load-store forwarding
system.cpu0.iew.lsq.thread0.cacheBlocked       248054                       # Number of times an access to memory failed due to the cache being blocked
system.cpu0.iew.lsq.thread0.forwLoads        37254934                       # Number of loads that had data forwarded from stores
system.cpu0.iew.lsq.thread0.ignoredResponses       167011                       # Number of memory responses ignored because the instruction is squashed
system.cpu0.iew.lsq.thread0.invAddrLoads            0                       # Number of loads ignored due to an invalid address
system.cpu0.iew.lsq.thread0.invAddrSwpfs            0                       # Number of software prefetches ignored due to an invalid address
system.cpu0.iew.lsq.thread0.memOrderViolation        16042                       # Number of memory ordering violations
system.cpu0.iew.lsq.thread0.rescheduledLoads      9044506                       # Number of loads that were rescheduled
system.cpu0.iew.lsq.thread0.squashedLoads     45378192                       # Number of loads squashed
system.cpu0.iew.lsq.thread0.squashedStores     14296982                       # Number of stores squashed
system.cpu0.iew.memOrderViolationEvents         16042                       # Number of memory order violations
system.cpu0.iew.predictedNotTakenIncorrect      2003815                       # Number of branches that were predicted not taken incorrectly
system.cpu0.iew.predictedTakenIncorrect      16279545                       # Number of branches that were predicted taken incorrectly
system.cpu0.iew.wb_consumers               1045304082                       # num instructions consuming a value
system.cpu0.iew.wb_count                   2300598883                       # cumulative count of insts written-back
system.cpu0.iew.wb_fanout                    0.839654                       # average fanout of values written-back
system.cpu0.iew.wb_producers                877693327                       # num instructions producing a value
system.cpu0.iew.wb_rate                      0.588806                       # insts written-back per cycle
system.cpu0.iew.wb_sent                    2300770447                       # cumulative count of insts sent to commit
system.cpu0.int_regfile_reads              2834678937                       # number of integer regfile reads
system.cpu0.int_regfile_writes             1469587738                       # number of integer regfile writes
system.cpu0.ipc                              0.569431                       # IPC: Instructions Per Cycle
system.cpu0.ipc_total                        0.569431                       # IPC: Total IPC of All Threads
system.cpu0.iq.FU_type_0::No_OpClass          7611809      0.33%      0.33% # Type of FU issued
system.cpu0.iq.FU_type_0::IntAlu           1282875494     55.11%     55.44% # Type of FU issued
system.cpu0.iq.FU_type_0::IntMult            18650098      0.80%     56.24% # Type of FU issued
system.cpu0.iq.FU_type_0::IntDiv              3802433      0.16%     56.41% # Type of FU issued
system.cpu0.iq.FU_type_0::FloatAdd                  0      0.00%     56.41% # Type of FU issued
system.cpu0.iq.FU_type_0::FloatCmp                  4      0.00%     56.41% # Type of FU issued
system.cpu0.iq.FU_type_0::FloatCvt                 12      0.00%     56.41% # Type of FU issued
system.cpu0.iq.FU_type_0::FloatMult                 0      0.00%     56.41% # Type of FU issued
system.cpu0.iq.FU_type_0::FloatMultAcc              0      0.00%     56.41% # Type of FU issued
system.cpu0.iq.FU_type_0::FloatDiv                  2      0.00%     56.41% # Type of FU issued
system.cpu0.iq.FU_type_0::FloatMisc                 4      0.00%     56.41% # Type of FU issued
system.cpu0.iq.FU_type_0::FloatSqrt                 0      0.00%     56.41% # Type of FU issued
system.cpu0.iq.FU_type_0::SimdAdd                   0      0.00%     56.41% # Type of FU issued
system.cpu0.iq.FU_type_0::SimdAddAcc                0      0.00%     56.41% # Type of FU issued
system.cpu0.iq.FU_type_0::SimdAlu                   0      0.00%     56.41% # Type of FU issued
system.cpu0.iq.FU_type_0::SimdCmp                   0      0.00%     56.41% # Type of FU issued
system.cpu0.iq.FU_type_0::SimdCvt                   0      0.00%     56.41% # Type of FU issued
system.cpu0.iq.FU_type_0::SimdMisc                  0      0.00%     56.41% # Type of FU issued
system.cpu0.iq.FU_type_0::SimdMult                  0      0.00%     56.41% # Type of FU issued
system.cpu0.iq.FU_type_0::SimdMultAcc               0      0.00%     56.41% # Type of FU issued
system.cpu0.iq.FU_type_0::SimdShift                 0      0.00%     56.41% # Type of FU issued
system.cpu0.iq.FU_type_0::SimdShiftAcc              0      0.00%     56.41% # Type of FU issued
system.cpu0.iq.FU_type_0::SimdDiv                   0      0.00%     56.41% # Type of FU issued
system.cpu0.iq.FU_type_0::SimdSqrt                  0      0.00%     56.41% # Type of FU issued
system.cpu0.iq.FU_type_0::SimdFloatAdd              0      0.00%     56.41% # Type of FU issued
system.cpu0.iq.FU_type_0::SimdFloatAlu              0      0.00%     56.41% # Type of FU issued
system.cpu0.iq.FU_type_0::SimdFloatCmp              0      0.00%     56.41% # Type of FU issued
system.cpu0.iq.FU_type_0::SimdFloatCvt              0      0.00%     56.41% # Type of FU issued
system.cpu0.iq.FU_type_0::SimdFloatDiv              0      0.00%     56.41% # Type of FU issued
system.cpu0.iq.FU_type_0::SimdFloatMisc             0      0.00%     56.41% # Type of FU issued
system.cpu0.iq.FU_type_0::SimdFloatMult             0      0.00%     56.41% # Type of FU issued
system.cpu0.iq.FU_type_0::SimdFloatMultAcc            0      0.00%     56.41% # Type of FU issued
system.cpu0.iq.FU_type_0::SimdFloatSqrt             0      0.00%     56.41% # Type of FU issued
system.cpu0.iq.FU_type_0::SimdReduceAdd             0      0.00%     56.41% # Type of FU issued
system.cpu0.iq.FU_type_0::SimdReduceAlu             0      0.00%     56.41% # Type of FU issued
system.cpu0.iq.FU_type_0::SimdReduceCmp             0      0.00%     56.41% # Type of FU issued
system.cpu0.iq.FU_type_0::SimdFloatReduceAdd            0      0.00%     56.41% # Type of FU issued
system.cpu0.iq.FU_type_0::SimdFloatReduceCmp            0      0.00%     56.41% # Type of FU issued
system.cpu0.iq.FU_type_0::SimdAes                   0      0.00%     56.41% # Type of FU issued
system.cpu0.iq.FU_type_0::SimdAesMix                0      0.00%     56.41% # Type of FU issued
system.cpu0.iq.FU_type_0::SimdSha1Hash              0      0.00%     56.41% # Type of FU issued
system.cpu0.iq.FU_type_0::SimdSha1Hash2             0      0.00%     56.41% # Type of FU issued
system.cpu0.iq.FU_type_0::SimdSha256Hash            0      0.00%     56.41% # Type of FU issued
system.cpu0.iq.FU_type_0::SimdSha256Hash2            0      0.00%     56.41% # Type of FU issued
system.cpu0.iq.FU_type_0::SimdShaSigma2             0      0.00%     56.41% # Type of FU issued
system.cpu0.iq.FU_type_0::SimdShaSigma3             0      0.00%     56.41% # Type of FU issued
system.cpu0.iq.FU_type_0::SimdPredAlu               0      0.00%     56.41% # Type of FU issued
system.cpu0.iq.FU_type_0::MemRead           739691810     31.78%     88.18% # Type of FU issued
system.cpu0.iq.FU_type_0::MemWrite          275016620     11.82%    100.00% # Type of FU issued
system.cpu0.iq.FU_type_0::FloatMemRead              9      0.00%    100.00% # Type of FU issued
system.cpu0.iq.FU_type_0::FloatMemWrite            20      0.00%    100.00% # Type of FU issued
system.cpu0.iq.FU_type_0::IprAccess                 0      0.00%    100.00% # Type of FU issued
system.cpu0.iq.FU_type_0::InstPrefetch              0      0.00%    100.00% # Type of FU issued
system.cpu0.iq.FU_type_0::total            2327648315                       # Type of FU issued
system.cpu0.iq.fp_alu_accesses                     55                       # Number of floating point alu accesses
system.cpu0.iq.fp_inst_queue_reads                106                       # Number of floating instruction queue reads
system.cpu0.iq.fp_inst_queue_wakeup_accesses           51                       # Number of floating instruction queue wakeup accesses
system.cpu0.iq.fp_inst_queue_writes                90                       # Number of floating instruction queue writes
system.cpu0.iq.fu_busy_cnt                    4703989                       # FU busy when requested
system.cpu0.iq.fu_busy_rate                  0.002021                       # FU busy rate (busy events/executed inst)
system.cpu0.iq.fu_full::No_OpClass                  0      0.00%      0.00% # attempts to use FU when none available
system.cpu0.iq.fu_full::IntAlu                 760921     16.18%     16.18% # attempts to use FU when none available
system.cpu0.iq.fu_full::IntMult                    18      0.00%     16.18% # attempts to use FU when none available
system.cpu0.iq.fu_full::IntDiv                      0      0.00%     16.18% # attempts to use FU when none available
system.cpu0.iq.fu_full::FloatAdd                    0      0.00%     16.18% # attempts to use FU when none available
system.cpu0.iq.fu_full::FloatCmp                    0      0.00%     16.18% # attempts to use FU when none available
system.cpu0.iq.fu_full::FloatCvt                    0      0.00%     16.18% # attempts to use FU when none available
system.cpu0.iq.fu_full::FloatMult                   0      0.00%     16.18% # attempts to use FU when none available
system.cpu0.iq.fu_full::FloatMultAcc                0      0.00%     16.18% # attempts to use FU when none available
system.cpu0.iq.fu_full::FloatDiv                    0      0.00%     16.18% # attempts to use FU when none available
system.cpu0.iq.fu_full::FloatMisc                   0      0.00%     16.18% # attempts to use FU when none available
system.cpu0.iq.fu_full::FloatSqrt                   0      0.00%     16.18% # attempts to use FU when none available
system.cpu0.iq.fu_full::SimdAdd                     0      0.00%     16.18% # attempts to use FU when none available
system.cpu0.iq.fu_full::SimdAddAcc                  0      0.00%     16.18% # attempts to use FU when none available
system.cpu0.iq.fu_full::SimdAlu                     0      0.00%     16.18% # attempts to use FU when none available
system.cpu0.iq.fu_full::SimdCmp                     0      0.00%     16.18% # attempts to use FU when none available
system.cpu0.iq.fu_full::SimdCvt                     0      0.00%     16.18% # attempts to use FU when none available
system.cpu0.iq.fu_full::SimdMisc                    0      0.00%     16.18% # attempts to use FU when none available
system.cpu0.iq.fu_full::SimdMult                    0      0.00%     16.18% # attempts to use FU when none available
system.cpu0.iq.fu_full::SimdMultAcc                 0      0.00%     16.18% # attempts to use FU when none available
system.cpu0.iq.fu_full::SimdShift                   0      0.00%     16.18% # attempts to use FU when none available
system.cpu0.iq.fu_full::SimdShiftAcc                0      0.00%     16.18% # attempts to use FU when none available
system.cpu0.iq.fu_full::SimdDiv                     0      0.00%     16.18% # attempts to use FU when none available
system.cpu0.iq.fu_full::SimdSqrt                    0      0.00%     16.18% # attempts to use FU when none available
system.cpu0.iq.fu_full::SimdFloatAdd                0      0.00%     16.18% # attempts to use FU when none available
system.cpu0.iq.fu_full::SimdFloatAlu                0      0.00%     16.18% # attempts to use FU when none available
system.cpu0.iq.fu_full::SimdFloatCmp                0      0.00%     16.18% # attempts to use FU when none available
system.cpu0.iq.fu_full::SimdFloatCvt                0      0.00%     16.18% # attempts to use FU when none available
system.cpu0.iq.fu_full::SimdFloatDiv                0      0.00%     16.18% # attempts to use FU when none available
system.cpu0.iq.fu_full::SimdFloatMisc               0      0.00%     16.18% # attempts to use FU when none available
system.cpu0.iq.fu_full::SimdFloatMult               0      0.00%     16.18% # attempts to use FU when none available
system.cpu0.iq.fu_full::SimdFloatMultAcc            0      0.00%     16.18% # attempts to use FU when none available
system.cpu0.iq.fu_full::SimdFloatSqrt               0      0.00%     16.18% # attempts to use FU when none available
system.cpu0.iq.fu_full::SimdReduceAdd               0      0.00%     16.18% # attempts to use FU when none available
system.cpu0.iq.fu_full::SimdReduceAlu               0      0.00%     16.18% # attempts to use FU when none available
system.cpu0.iq.fu_full::SimdReduceCmp               0      0.00%     16.18% # attempts to use FU when none available
system.cpu0.iq.fu_full::SimdFloatReduceAdd            0      0.00%     16.18% # attempts to use FU when none available
system.cpu0.iq.fu_full::SimdFloatReduceCmp            0      0.00%     16.18% # attempts to use FU when none available
system.cpu0.iq.fu_full::SimdAes                     0      0.00%     16.18% # attempts to use FU when none available
system.cpu0.iq.fu_full::SimdAesMix                  0      0.00%     16.18% # attempts to use FU when none available
system.cpu0.iq.fu_full::SimdSha1Hash                0      0.00%     16.18% # attempts to use FU when none available
system.cpu0.iq.fu_full::SimdSha1Hash2               0      0.00%     16.18% # attempts to use FU when none available
system.cpu0.iq.fu_full::SimdSha256Hash              0      0.00%     16.18% # attempts to use FU when none available
system.cpu0.iq.fu_full::SimdSha256Hash2             0      0.00%     16.18% # attempts to use FU when none available
system.cpu0.iq.fu_full::SimdShaSigma2               0      0.00%     16.18% # attempts to use FU when none available
system.cpu0.iq.fu_full::SimdShaSigma3               0      0.00%     16.18% # attempts to use FU when none available
system.cpu0.iq.fu_full::SimdPredAlu                 0      0.00%     16.18% # attempts to use FU when none available
system.cpu0.iq.fu_full::MemRead               3370939     71.66%     87.84% # attempts to use FU when none available
system.cpu0.iq.fu_full::MemWrite               572107     12.16%    100.00% # attempts to use FU when none available
system.cpu0.iq.fu_full::FloatMemRead                0      0.00%    100.00% # attempts to use FU when none available
system.cpu0.iq.fu_full::FloatMemWrite               4      0.00%    100.00% # attempts to use FU when none available
system.cpu0.iq.fu_full::IprAccess                   0      0.00%    100.00% # attempts to use FU when none available
system.cpu0.iq.fu_full::InstPrefetch                0      0.00%    100.00% # attempts to use FU when none available
system.cpu0.iq.int_alu_accesses            2324740440                       # Number of integer alu accesses
system.cpu0.iq.int_inst_queue_reads        8312254614                       # Number of integer instruction queue reads
system.cpu0.iq.int_inst_queue_wakeup_accesses   2300598832                       # Number of integer instruction queue wakeup accesses
system.cpu0.iq.int_inst_queue_writes       2468052503                       # Number of integer instruction queue writes
system.cpu0.iq.iqInstsAdded                2333203156                       # Number of instructions added to the IQ (excludes non-spec)
system.cpu0.iq.iqInstsIssued               2327648315                       # Number of instructions issued
system.cpu0.iq.iqNonSpecInstsAdded           15168892                       # Number of non-speculative instructions added to the IQ
system.cpu0.iq.iqSquashedInstsExamined      119665962                       # Number of squashed instructions iterated over during squash; mainly for profiling
system.cpu0.iq.iqSquashedInstsIssued           315848                       # Number of squashed instructions issued
system.cpu0.iq.iqSquashedNonSpecRemoved       3749347                       # Number of squashed non-spec instructions that were removed
system.cpu0.iq.iqSquashedOperandsExamined     47988042                       # Number of squashed operands that are examined and possibly removed from graph
system.cpu0.iq.issued_per_cycle::samples   3651938253                       # Number of insts issued each cycle
system.cpu0.iq.issued_per_cycle::mean        0.637373                       # Number of insts issued each cycle
system.cpu0.iq.issued_per_cycle::stdev       0.859197                       # Number of insts issued each cycle
system.cpu0.iq.issued_per_cycle::underflows            0      0.00%      0.00% # Number of insts issued each cycle
system.cpu0.iq.issued_per_cycle::0         2031530613     55.63%     55.63% # Number of insts issued each cycle
system.cpu0.iq.issued_per_cycle::1         1092020272     29.90%     85.53% # Number of insts issued each cycle
system.cpu0.iq.issued_per_cycle::2          377310130     10.33%     95.86% # Number of insts issued each cycle
system.cpu0.iq.issued_per_cycle::3          130630962      3.58%     99.44% # Number of insts issued each cycle
system.cpu0.iq.issued_per_cycle::4           16480379      0.45%     99.89% # Number of insts issued each cycle
system.cpu0.iq.issued_per_cycle::5            1652468      0.05%     99.94% # Number of insts issued each cycle
system.cpu0.iq.issued_per_cycle::6            1581907      0.04%     99.98% # Number of insts issued each cycle
system.cpu0.iq.issued_per_cycle::7             412577      0.01%     99.99% # Number of insts issued each cycle
system.cpu0.iq.issued_per_cycle::8             318945      0.01%    100.00% # Number of insts issued each cycle
system.cpu0.iq.issued_per_cycle::overflows            0      0.00%    100.00% # Number of insts issued each cycle
system.cpu0.iq.issued_per_cycle::min_value            0                       # Number of insts issued each cycle
system.cpu0.iq.issued_per_cycle::max_value            8                       # Number of insts issued each cycle
system.cpu0.iq.issued_per_cycle::total     3651938253                       # Number of insts issued each cycle
system.cpu0.iq.rate                          0.595729                       # Inst issue rate
system.cpu0.iq.vec_alu_accesses                     0                       # Number of vector alu accesses
system.cpu0.iq.vec_inst_queue_reads                 0                       # Number of vector instruction queue reads
system.cpu0.iq.vec_inst_queue_wakeup_accesses            0                       # Number of vector instruction queue wakeup accesses
system.cpu0.iq.vec_inst_queue_writes                0                       # Number of vector instruction queue writes
system.cpu0.itb.accesses                            0                       # DTB accesses
system.cpu0.itb.hits                                0                       # DTB hits
system.cpu0.itb.misses                              0                       # DTB misses
system.cpu0.itb.read_accesses                       0                       # DTB read accesses
system.cpu0.itb.read_hits                           0                       # DTB read hits
system.cpu0.itb.read_misses                         0                       # DTB read misses
system.cpu0.itb.write_accesses                      0                       # DTB write accesses
system.cpu0.itb.write_hits                          0                       # DTB write hits
system.cpu0.itb.write_misses                        0                       # DTB write misses
system.cpu0.memDep0.conflictingLoads         42097416                       # Number of conflicting loads.
system.cpu0.memDep0.conflictingStores         9084233                       # Number of conflicting stores.
system.cpu0.memDep0.insertedLoads           736940337                       # Number of loads inserted to the mem dependence unit.
system.cpu0.memDep0.insertedStores          282878753                       # Number of stores inserted to the mem dependence unit.
system.cpu0.misc_regfile_reads                   2901                       # number of misc regfile reads
system.cpu0.misc_regfile_writes                    22                       # number of misc regfile writes
system.cpu0.numCycles                      3907229173                       # number of cpu cycles simulated
system.cpu0.numWorkItemsCompleted                   0                       # number of work items this cpu completed
system.cpu0.numWorkItemsStarted                     0                       # number of work items this cpu started
system.cpu0.quiesceCycles                     7904823                       # Total number of cycles that CPU has spent quiesced or waiting for an interrupt
system.cpu0.rename.BlockCycles              591054360                       # Number of cycles rename is blocking
system.cpu0.rename.CommittedMaps           1421390007                       # Number of HB maps that are committed
system.cpu0.rename.IQFullEvents              24856408                       # Number of times rename has blocked due to IQ full
system.cpu0.rename.IdleCycles              1348830750                       # Number of cycles rename is idle
system.cpu0.rename.LQFullEvents              19641156                       # Number of times rename has blocked due to LQ full
system.cpu0.rename.ROBFullEvents                69886                       # Number of times rename has blocked due to ROB full
system.cpu0.rename.RenameLookups           2911708345                       # Number of register rename lookups that rename has made
system.cpu0.rename.RenamedInsts            2378250505                       # Number of instructions processed by rename
system.cpu0.rename.RenamedOperands         1527800239                       # Number of destination operands rename has renamed
system.cpu0.rename.RunCycles               1616117962                       # Number of cycles rename is running
system.cpu0.rename.SQFullEvents              31747096                       # Number of times rename has blocked due to SQ full
system.cpu0.rename.SquashCycles              18064316                       # Number of cycles rename is squashing
system.cpu0.rename.UnblockCycles             77640747                       # Number of cycles rename is unblocking
system.cpu0.rename.UndoneMaps               106410228                       # Number of HB maps that are undone due to squashing
system.cpu0.rename.fp_rename_lookups               44                       # Number of floating rename lookups
system.cpu0.rename.int_rename_lookups      2911708301                       # Number of integer rename lookups
system.cpu0.rename.serializeStallCycles        230118                       # count of cycles rename stalled for serializing inst
system.cpu0.rename.serializingInsts              8854                       # count of serializing insts renamed
system.cpu0.rename.skidInsts                 51817025                       # count of insts added to the skid buffer
system.cpu0.rename.tempSerializingInsts          8840                       # count of temporary serializing insts renamed
system.cpu0.rob.rob_reads                  5910962853                       # The number of ROB reads
system.cpu0.rob.rob_writes                 4725759802                       # The number of ROB writes
system.cpu0.timesIdled                       40333446                       # Number of times that the entire CPU went into an idle state and unscheduled itself
system.cpu0.workload.numSyscalls                 2868                       # Number of system calls
system.cpu1.branchPred.BTBCorrect                   0                       # Number of correct BTB predictions (this stat may not work properly.
system.cpu1.branchPred.BTBHitPct            93.440541                       # BTB Hit Percentage
system.cpu1.branchPred.BTBHits               17687843                       # Number of BTB hits
system.cpu1.branchPred.BTBLookups            18929517                       # Number of BTB lookups
system.cpu1.branchPred.RASInCorrect                 0                       # Number of incorrect RAS predictions.
system.cpu1.branchPred.condIncorrect          1777199                       # Number of conditional branches incorrect
system.cpu1.branchPred.condPredicted         31900346                       # Number of conditional branches predicted
system.cpu1.branchPred.indirectHits            922016                       # Number of indirect target hits.
system.cpu1.branchPred.indirectLookups         933155                       # Number of indirect predictor lookups.
system.cpu1.branchPred.indirectMisses           11139                       # Number of indirect misses.
system.cpu1.branchPred.lookups               35127951                       # Number of BP lookups
system.cpu1.branchPred.usedRAS                      0                       # Number of times the RAS was used to get a target.
system.cpu1.branchPredindirectMispredicted        47703                       # Number of mispredicted indirect branches.
system.cpu1.commit.amos                       3801575                       # Number of atomic instructions committed
system.cpu1.commit.branchMispredicts          1375513                       # The number of times a branch was mispredicted
system.cpu1.commit.branches                  29519226                       # Number of branches committed
system.cpu1.commit.bw_lim_events              2930775                       # number cycles where commit BW limit reached
system.cpu1.commit.commitNonSpecStalls       11405392                       # The number of times commit has been forced to stall to communicate backwards
system.cpu1.commit.commitSquashedInsts       13357675                       # The number of squashed insts skipped by commit
system.cpu1.commit.committedInsts           130077632                       # Number of instructions committed
system.cpu1.commit.committedOps             133879380                       # Number of ops (including micro ops) committed
system.cpu1.commit.committed_per_cycle::samples    680573440                       # Number of insts commited each cycle
system.cpu1.commit.committed_per_cycle::mean     0.196716                       # Number of insts commited each cycle
system.cpu1.commit.committed_per_cycle::stdev     0.866014                       # Number of insts commited each cycle
system.cpu1.commit.committed_per_cycle::underflows            0      0.00%      0.00% # Number of insts commited each cycle
system.cpu1.commit.committed_per_cycle::0    624392219     91.75%     91.75% # Number of insts commited each cycle
system.cpu1.commit.committed_per_cycle::1     27960757      4.11%     95.85% # Number of insts commited each cycle
system.cpu1.commit.committed_per_cycle::2      9523064      1.40%     97.25% # Number of insts commited each cycle
system.cpu1.commit.committed_per_cycle::3      8882974      1.31%     98.56% # Number of insts commited each cycle
system.cpu1.commit.committed_per_cycle::4      2083119      0.31%     98.86% # Number of insts commited each cycle
system.cpu1.commit.committed_per_cycle::5       846351      0.12%     98.99% # Number of insts commited each cycle
system.cpu1.commit.committed_per_cycle::6      3466125      0.51%     99.50% # Number of insts commited each cycle
system.cpu1.commit.committed_per_cycle::7       488056      0.07%     99.57% # Number of insts commited each cycle
system.cpu1.commit.committed_per_cycle::8      2930775      0.43%    100.00% # Number of insts commited each cycle
system.cpu1.commit.committed_per_cycle::overflows            0      0.00%    100.00% # Number of insts commited each cycle
system.cpu1.commit.committed_per_cycle::min_value            0                       # Number of insts commited each cycle
system.cpu1.commit.committed_per_cycle::max_value            8                       # Number of insts commited each cycle
system.cpu1.commit.committed_per_cycle::total    680573440                       # Number of insts commited each cycle
system.cpu1.commit.fp_insts                        12                       # Number of committed floating point instructions.
system.cpu1.commit.function_calls             1457357                       # Number of function calls committed.
system.cpu1.commit.int_insts                125283477                       # Number of committed integer instructions.
system.cpu1.commit.loads                     36891825                       # Number of loads committed
system.cpu1.commit.membars                    7603258                       # Number of memory barriers committed
system.cpu1.commit.op_class_0::No_OpClass      7603258      5.68%      5.68% # Class of committed instruction
system.cpu1.commit.op_class_0::IntAlu        77458461     57.86%     63.54% # Class of committed instruction
system.cpu1.commit.op_class_0::IntMult             44      0.00%     63.54% # Class of committed instruction
system.cpu1.commit.op_class_0::IntDiv              88      0.00%     63.54% # Class of committed instruction
system.cpu1.commit.op_class_0::FloatAdd             0      0.00%     63.54% # Class of committed instruction
system.cpu1.commit.op_class_0::FloatCmp             0      0.00%     63.54% # Class of committed instruction
system.cpu1.commit.op_class_0::FloatCvt             0      0.00%     63.54% # Class of committed instruction
system.cpu1.commit.op_class_0::FloatMult            0      0.00%     63.54% # Class of committed instruction
system.cpu1.commit.op_class_0::FloatMultAcc            0      0.00%     63.54% # Class of committed instruction
system.cpu1.commit.op_class_0::FloatDiv             0      0.00%     63.54% # Class of committed instruction
system.cpu1.commit.op_class_0::FloatMisc            0      0.00%     63.54% # Class of committed instruction
system.cpu1.commit.op_class_0::FloatSqrt            0      0.00%     63.54% # Class of committed instruction
system.cpu1.commit.op_class_0::SimdAdd              0      0.00%     63.54% # Class of committed instruction
system.cpu1.commit.op_class_0::SimdAddAcc            0      0.00%     63.54% # Class of committed instruction
system.cpu1.commit.op_class_0::SimdAlu              0      0.00%     63.54% # Class of committed instruction
system.cpu1.commit.op_class_0::SimdCmp              0      0.00%     63.54% # Class of committed instruction
system.cpu1.commit.op_class_0::SimdCvt              0      0.00%     63.54% # Class of committed instruction
system.cpu1.commit.op_class_0::SimdMisc             0      0.00%     63.54% # Class of committed instruction
system.cpu1.commit.op_class_0::SimdMult             0      0.00%     63.54% # Class of committed instruction
system.cpu1.commit.op_class_0::SimdMultAcc            0      0.00%     63.54% # Class of committed instruction
system.cpu1.commit.op_class_0::SimdShift            0      0.00%     63.54% # Class of committed instruction
system.cpu1.commit.op_class_0::SimdShiftAcc            0      0.00%     63.54% # Class of committed instruction
system.cpu1.commit.op_class_0::SimdDiv              0      0.00%     63.54% # Class of committed instruction
system.cpu1.commit.op_class_0::SimdSqrt             0      0.00%     63.54% # Class of committed instruction
system.cpu1.commit.op_class_0::SimdFloatAdd            0      0.00%     63.54% # Class of committed instruction
system.cpu1.commit.op_class_0::SimdFloatAlu            0      0.00%     63.54% # Class of committed instruction
system.cpu1.commit.op_class_0::SimdFloatCmp            0      0.00%     63.54% # Class of committed instruction
system.cpu1.commit.op_class_0::SimdFloatCvt            0      0.00%     63.54% # Class of committed instruction
system.cpu1.commit.op_class_0::SimdFloatDiv            0      0.00%     63.54% # Class of committed instruction
system.cpu1.commit.op_class_0::SimdFloatMisc            0      0.00%     63.54% # Class of committed instruction
system.cpu1.commit.op_class_0::SimdFloatMult            0      0.00%     63.54% # Class of committed instruction
system.cpu1.commit.op_class_0::SimdFloatMultAcc            0      0.00%     63.54% # Class of committed instruction
system.cpu1.commit.op_class_0::SimdFloatSqrt            0      0.00%     63.54% # Class of committed instruction
system.cpu1.commit.op_class_0::SimdReduceAdd            0      0.00%     63.54% # Class of committed instruction
system.cpu1.commit.op_class_0::SimdReduceAlu            0      0.00%     63.54% # Class of committed instruction
system.cpu1.commit.op_class_0::SimdReduceCmp            0      0.00%     63.54% # Class of committed instruction
system.cpu1.commit.op_class_0::SimdFloatReduceAdd            0      0.00%     63.54% # Class of committed instruction
system.cpu1.commit.op_class_0::SimdFloatReduceCmp            0      0.00%     63.54% # Class of committed instruction
system.cpu1.commit.op_class_0::SimdAes              0      0.00%     63.54% # Class of committed instruction
system.cpu1.commit.op_class_0::SimdAesMix            0      0.00%     63.54% # Class of committed instruction
system.cpu1.commit.op_class_0::SimdSha1Hash            0      0.00%     63.54% # Class of committed instruction
system.cpu1.commit.op_class_0::SimdSha1Hash2            0      0.00%     63.54% # Class of committed instruction
system.cpu1.commit.op_class_0::SimdSha256Hash            0      0.00%     63.54% # Class of committed instruction
system.cpu1.commit.op_class_0::SimdSha256Hash2            0      0.00%     63.54% # Class of committed instruction
system.cpu1.commit.op_class_0::SimdShaSigma2            0      0.00%     63.54% # Class of committed instruction
system.cpu1.commit.op_class_0::SimdShaSigma3            0      0.00%     63.54% # Class of committed instruction
system.cpu1.commit.op_class_0::SimdPredAlu            0      0.00%     63.54% # Class of committed instruction
system.cpu1.commit.op_class_0::MemRead       40693400     30.40%     93.93% # Class of committed instruction
system.cpu1.commit.op_class_0::MemWrite       8124117      6.07%    100.00% # Class of committed instruction
system.cpu1.commit.op_class_0::FloatMemRead            0      0.00%    100.00% # Class of committed instruction
system.cpu1.commit.op_class_0::FloatMemWrite           12      0.00%    100.00% # Class of committed instruction
system.cpu1.commit.op_class_0::IprAccess            0      0.00%    100.00% # Class of committed instruction
system.cpu1.commit.op_class_0::InstPrefetch            0      0.00%    100.00% # Class of committed instruction
system.cpu1.commit.op_class_0::total        133879380                       # Class of committed instruction
system.cpu1.commit.refs                      48817529                       # Number of memory references committed
system.cpu1.commit.swp_count                        0                       # Number of s/w prefetches committed
system.cpu1.commit.vec_insts                        0                       # Number of committed Vector instructions.
system.cpu1.committedInsts                  130077632                       # Number of Instructions Simulated
system.cpu1.committedOps                    133879380                       # Number of Ops (including micro ops) Simulated
system.cpu1.cpi                              5.263034                       # CPI: Cycles Per Instruction
system.cpu1.cpi_total                        5.263034                       # CPI: Total CPI of All Threads
system.cpu1.decode.BlockedCycles            599804622                       # Number of cycles decode is blocked
system.cpu1.decode.BranchMispred               418096                       # Number of times decode detected a branch misprediction
system.cpu1.decode.BranchResolved            16986403                       # Number of times decode resolved a branch
system.cpu1.decode.DecodedInsts             152893178                       # Number of instructions handled by decode
system.cpu1.decode.IdleCycles                22357940                       # Number of cycles decode is idle
system.cpu1.decode.RunCycles                 51700592                       # Number of cycles decode is running
system.cpu1.decode.SquashCycles               1376909                       # Number of cycles decode is squashing
system.cpu1.decode.SquashedInsts              1179344                       # Number of squashed instructions handled by decode
system.cpu1.decode.UnblockCycles              7955479                       # Number of cycles decode is unblocking
system.cpu1.dtb.accesses                            0                       # DTB accesses
system.cpu1.dtb.hits                                0                       # DTB hits
system.cpu1.dtb.misses                              0                       # DTB misses
system.cpu1.dtb.read_accesses                       0                       # DTB read accesses
system.cpu1.dtb.read_hits                           0                       # DTB read hits
system.cpu1.dtb.read_misses                         0                       # DTB read misses
system.cpu1.dtb.write_accesses                      0                       # DTB write accesses
system.cpu1.dtb.write_hits                          0                       # DTB write hits
system.cpu1.dtb.write_misses                        0                       # DTB write misses
system.cpu1.fetch.Branches                   35127951                       # Number of branches that fetch encountered
system.cpu1.fetch.CacheLines                 22976124                       # Number of cache lines fetched
system.cpu1.fetch.Cycles                    656514808                       # Number of cycles fetch has run and was not squashing or blocked
system.cpu1.fetch.IcacheSquashes               349686                       # Number of outstanding Icache misses that were squashed
system.cpu1.fetch.IcacheWaitRetryStallCycles            5                       # Number of stall cycles due to full MSHR
system.cpu1.fetch.Insts                     154419305                       # Number of instructions fetch has processed
system.cpu1.fetch.MiscStallCycles                   2                       # Number of cycles fetch has spent waiting on interrupts, or bad addresses, or out of MSHRs
system.cpu1.fetch.SquashCycles                3557190                       # Number of cycles fetch has spent squashing
system.cpu1.fetch.branchRate                 0.051311                       # Number of branch fetches per cycle
system.cpu1.fetch.icacheStallCycles          24902132                       # Number of cycles fetch is stalled on an Icache miss
system.cpu1.fetch.predictedBranches          18609859                       # Number of branches that fetch has predicted taken
system.cpu1.fetch.rate                       0.225560                       # Number of inst fetches per cycle
system.cpu1.fetch.rateDist::samples         683195542                       # Number of instructions fetched each cycle (Total)
system.cpu1.fetch.rateDist::mean             0.231590                       # Number of instructions fetched each cycle (Total)
system.cpu1.fetch.rateDist::stdev            0.668400                       # Number of instructions fetched each cycle (Total)
system.cpu1.fetch.rateDist::underflows              0      0.00%      0.00% # Number of instructions fetched each cycle (Total)
system.cpu1.fetch.rateDist::0               586491679     85.85%     85.85% # Number of instructions fetched each cycle (Total)
system.cpu1.fetch.rateDist::1                57133070      8.36%     94.21% # Number of instructions fetched each cycle (Total)
system.cpu1.fetch.rateDist::2                23694203      3.47%     97.68% # Number of instructions fetched each cycle (Total)
system.cpu1.fetch.rateDist::3                11569642      1.69%     99.37% # Number of instructions fetched each cycle (Total)
system.cpu1.fetch.rateDist::4                 3066819      0.45%     99.82% # Number of instructions fetched each cycle (Total)
system.cpu1.fetch.rateDist::5                  717467      0.11%     99.92% # Number of instructions fetched each cycle (Total)
system.cpu1.fetch.rateDist::6                  522372      0.08%    100.00% # Number of instructions fetched each cycle (Total)
system.cpu1.fetch.rateDist::7                      10      0.00%    100.00% # Number of instructions fetched each cycle (Total)
system.cpu1.fetch.rateDist::8                     280      0.00%    100.00% # Number of instructions fetched each cycle (Total)
system.cpu1.fetch.rateDist::overflows               0      0.00%    100.00% # Number of instructions fetched each cycle (Total)
system.cpu1.fetch.rateDist::min_value               0                       # Number of instructions fetched each cycle (Total)
system.cpu1.fetch.rateDist::max_value               8                       # Number of instructions fetched each cycle (Total)
system.cpu1.fetch.rateDist::total           683195542                       # Number of instructions fetched each cycle (Total)
system.cpu1.fp_regfile_reads                       12                       # number of floating regfile reads
system.cpu1.idleCycles                        1407417                       # Total number of cycles that the CPU has spent unscheduled due to idling
system.cpu1.iew.branchMispredicts             1481277                       # Number of branch mispredicts detected at execute
system.cpu1.iew.exec_branches                31357217                       # Number of branches executed
system.cpu1.iew.exec_nop                            0                       # number of nop insts executed
system.cpu1.iew.exec_rate                    0.209262                       # Inst execution rate
system.cpu1.iew.exec_refs                    51919694                       # number of memory reference insts executed
system.cpu1.iew.exec_stores                  12356672                       # Number of stores executed
system.cpu1.iew.exec_swp                            0                       # number of swp insts executed
system.cpu1.iew.iewBlockCycles              512398360                       # Number of cycles IEW is blocking
system.cpu1.iew.iewDispLoadInsts             39993143                       # Number of dispatched load instructions
system.cpu1.iew.iewDispNonSpecInsts           3802300                       # Number of dispatched non-speculative instructions
system.cpu1.iew.iewDispSquashedInsts          1461824                       # Number of squashed instructions skipped by dispatch
system.cpu1.iew.iewDispStoreInsts            12760873                       # Number of dispatched store instructions
system.cpu1.iew.iewDispatchedInsts          147222851                       # Number of instructions dispatched to IQ
system.cpu1.iew.iewExecLoadInsts             39563022                       # Number of load instructions executed
system.cpu1.iew.iewExecSquashedInsts          1284620                       # Number of squashed instructions skipped in execute
system.cpu1.iew.iewExecutedInsts            143261308                       # Number of executed instructions
system.cpu1.iew.iewIQFullEvents               2920345                       # Number of times the IQ has become full, causing a stall
system.cpu1.iew.iewIdleCycles                       0                       # Number of cycles IEW is idle
system.cpu1.iew.iewLSQFullEvents              4218735                       # Number of times the LSQ has become full, causing a stall
system.cpu1.iew.iewSquashCycles               1376909                       # Number of cycles IEW is squashing
system.cpu1.iew.iewUnblockCycles             11639931                       # Number of cycles IEW is unblocking
system.cpu1.iew.lsq.thread0.blockedLoads            0                       # Number of blocked loads due to partial load-store forwarding
system.cpu1.iew.lsq.thread0.cacheBlocked        61176                       # Number of times an access to memory failed due to the cache being blocked
system.cpu1.iew.lsq.thread0.forwLoads         1125775                       # Number of loads that had data forwarded from stores
system.cpu1.iew.lsq.thread0.ignoredResponses        42678                       # Number of memory responses ignored because the instruction is squashed
system.cpu1.iew.lsq.thread0.invAddrLoads            0                       # Number of loads ignored due to an invalid address
system.cpu1.iew.lsq.thread0.invAddrSwpfs            0                       # Number of software prefetches ignored due to an invalid address
system.cpu1.iew.lsq.thread0.memOrderViolation         1681                       # Number of memory ordering violations
system.cpu1.iew.lsq.thread0.rescheduledLoads         4418                       # Number of loads that were rescheduled
system.cpu1.iew.lsq.thread0.squashedLoads      3101318                       # Number of loads squashed
system.cpu1.iew.lsq.thread0.squashedStores       835169                       # Number of stores squashed
system.cpu1.iew.memOrderViolationEvents          1681                       # Number of memory order violations
system.cpu1.iew.predictedNotTakenIncorrect       503187                       # Number of branches that were predicted not taken incorrectly
system.cpu1.iew.predictedTakenIncorrect        978090                       # Number of branches that were predicted taken incorrectly
system.cpu1.iew.wb_consumers                 82560631                       # num instructions consuming a value
system.cpu1.iew.wb_count                    142146829                       # cumulative count of insts written-back
system.cpu1.iew.wb_fanout                    0.838622                       # average fanout of values written-back
system.cpu1.iew.wb_producers                 69237196                       # num instructions producing a value
system.cpu1.iew.wb_rate                      0.207634                       # insts written-back per cycle
system.cpu1.iew.wb_sent                     142200969                       # cumulative count of insts sent to commit
system.cpu1.int_regfile_reads               178020565                       # number of integer regfile reads
system.cpu1.int_regfile_writes               95455984                       # number of integer regfile writes
system.cpu1.ipc                              0.190004                       # IPC: Instructions Per Cycle
system.cpu1.ipc_total                        0.190004                       # IPC: Total IPC of All Threads
system.cpu1.iq.FU_type_0::No_OpClass          7603372      5.26%      5.26% # Type of FU issued
system.cpu1.iq.FU_type_0::IntAlu             84666666     58.57%     63.83% # Type of FU issued
system.cpu1.iq.FU_type_0::IntMult                  47      0.00%     63.83% # Type of FU issued
system.cpu1.iq.FU_type_0::IntDiv                   90      0.00%     63.83% # Type of FU issued
system.cpu1.iq.FU_type_0::FloatAdd                  0      0.00%     63.83% # Type of FU issued
system.cpu1.iq.FU_type_0::FloatCmp                  0      0.00%     63.83% # Type of FU issued
system.cpu1.iq.FU_type_0::FloatCvt                  0      0.00%     63.83% # Type of FU issued
system.cpu1.iq.FU_type_0::FloatMult                 0      0.00%     63.83% # Type of FU issued
system.cpu1.iq.FU_type_0::FloatMultAcc              0      0.00%     63.83% # Type of FU issued
system.cpu1.iq.FU_type_0::FloatDiv                  0      0.00%     63.83% # Type of FU issued
system.cpu1.iq.FU_type_0::FloatMisc                 0      0.00%     63.83% # Type of FU issued
system.cpu1.iq.FU_type_0::FloatSqrt                 0      0.00%     63.83% # Type of FU issued
system.cpu1.iq.FU_type_0::SimdAdd                   0      0.00%     63.83% # Type of FU issued
system.cpu1.iq.FU_type_0::SimdAddAcc                0      0.00%     63.83% # Type of FU issued
system.cpu1.iq.FU_type_0::SimdAlu                   0      0.00%     63.83% # Type of FU issued
system.cpu1.iq.FU_type_0::SimdCmp                   0      0.00%     63.83% # Type of FU issued
system.cpu1.iq.FU_type_0::SimdCvt                   0      0.00%     63.83% # Type of FU issued
system.cpu1.iq.FU_type_0::SimdMisc                  0      0.00%     63.83% # Type of FU issued
system.cpu1.iq.FU_type_0::SimdMult                  0      0.00%     63.83% # Type of FU issued
system.cpu1.iq.FU_type_0::SimdMultAcc               0      0.00%     63.83% # Type of FU issued
system.cpu1.iq.FU_type_0::SimdShift                 0      0.00%     63.83% # Type of FU issued
system.cpu1.iq.FU_type_0::SimdShiftAcc              0      0.00%     63.83% # Type of FU issued
system.cpu1.iq.FU_type_0::SimdDiv                   0      0.00%     63.83% # Type of FU issued
system.cpu1.iq.FU_type_0::SimdSqrt                  0      0.00%     63.83% # Type of FU issued
system.cpu1.iq.FU_type_0::SimdFloatAdd              0      0.00%     63.83% # Type of FU issued
system.cpu1.iq.FU_type_0::SimdFloatAlu              0      0.00%     63.83% # Type of FU issued
system.cpu1.iq.FU_type_0::SimdFloatCmp              0      0.00%     63.83% # Type of FU issued
system.cpu1.iq.FU_type_0::SimdFloatCvt              0      0.00%     63.83% # Type of FU issued
system.cpu1.iq.FU_type_0::SimdFloatDiv              0      0.00%     63.83% # Type of FU issued
system.cpu1.iq.FU_type_0::SimdFloatMisc             0      0.00%     63.83% # Type of FU issued
system.cpu1.iq.FU_type_0::SimdFloatMult             0      0.00%     63.83% # Type of FU issued
system.cpu1.iq.FU_type_0::SimdFloatMultAcc            0      0.00%     63.83% # Type of FU issued
system.cpu1.iq.FU_type_0::SimdFloatSqrt             0      0.00%     63.83% # Type of FU issued
system.cpu1.iq.FU_type_0::SimdReduceAdd             0      0.00%     63.83% # Type of FU issued
system.cpu1.iq.FU_type_0::SimdReduceAlu             0      0.00%     63.83% # Type of FU issued
system.cpu1.iq.FU_type_0::SimdReduceCmp             0      0.00%     63.83% # Type of FU issued
system.cpu1.iq.FU_type_0::SimdFloatReduceAdd            0      0.00%     63.83% # Type of FU issued
system.cpu1.iq.FU_type_0::SimdFloatReduceCmp            0      0.00%     63.83% # Type of FU issued
system.cpu1.iq.FU_type_0::SimdAes                   0      0.00%     63.83% # Type of FU issued
system.cpu1.iq.FU_type_0::SimdAesMix                0      0.00%     63.83% # Type of FU issued
system.cpu1.iq.FU_type_0::SimdSha1Hash              0      0.00%     63.83% # Type of FU issued
system.cpu1.iq.FU_type_0::SimdSha1Hash2             0      0.00%     63.83% # Type of FU issued
system.cpu1.iq.FU_type_0::SimdSha256Hash            0      0.00%     63.83% # Type of FU issued
system.cpu1.iq.FU_type_0::SimdSha256Hash2            0      0.00%     63.83% # Type of FU issued
system.cpu1.iq.FU_type_0::SimdShaSigma2             0      0.00%     63.83% # Type of FU issued
system.cpu1.iq.FU_type_0::SimdShaSigma3             0      0.00%     63.83% # Type of FU issued
system.cpu1.iq.FU_type_0::SimdPredAlu               0      0.00%     63.83% # Type of FU issued
system.cpu1.iq.FU_type_0::MemRead            43668394     30.21%     94.05% # Type of FU issued
system.cpu1.iq.FU_type_0::MemWrite            8607347      5.95%    100.00% # Type of FU issued
system.cpu1.iq.FU_type_0::FloatMemRead              0      0.00%    100.00% # Type of FU issued
system.cpu1.iq.FU_type_0::FloatMemWrite            12      0.00%    100.00% # Type of FU issued
system.cpu1.iq.FU_type_0::IprAccess                 0      0.00%    100.00% # Type of FU issued
system.cpu1.iq.FU_type_0::InstPrefetch              0      0.00%    100.00% # Type of FU issued
system.cpu1.iq.FU_type_0::total             144545928                       # Type of FU issued
system.cpu1.iq.fp_alu_accesses                     16                       # Number of floating point alu accesses
system.cpu1.iq.fp_inst_queue_reads                 28                       # Number of floating instruction queue reads
system.cpu1.iq.fp_inst_queue_wakeup_accesses           12                       # Number of floating instruction queue wakeup accesses
system.cpu1.iq.fp_inst_queue_writes                12                       # Number of floating instruction queue writes
system.cpu1.iq.fu_busy_cnt                    4058565                       # FU busy when requested
system.cpu1.iq.fu_busy_rate                  0.028078                       # FU busy rate (busy events/executed inst)
system.cpu1.iq.fu_full::No_OpClass                  0      0.00%      0.00% # attempts to use FU when none available
system.cpu1.iq.fu_full::IntAlu                 639532     15.76%     15.76% # attempts to use FU when none available
system.cpu1.iq.fu_full::IntMult                     0      0.00%     15.76% # attempts to use FU when none available
system.cpu1.iq.fu_full::IntDiv                      0      0.00%     15.76% # attempts to use FU when none available
system.cpu1.iq.fu_full::FloatAdd                    0      0.00%     15.76% # attempts to use FU when none available
system.cpu1.iq.fu_full::FloatCmp                    0      0.00%     15.76% # attempts to use FU when none available
system.cpu1.iq.fu_full::FloatCvt                    0      0.00%     15.76% # attempts to use FU when none available
system.cpu1.iq.fu_full::FloatMult                   0      0.00%     15.76% # attempts to use FU when none available
system.cpu1.iq.fu_full::FloatMultAcc                0      0.00%     15.76% # attempts to use FU when none available
system.cpu1.iq.fu_full::FloatDiv                    0      0.00%     15.76% # attempts to use FU when none available
system.cpu1.iq.fu_full::FloatMisc                   0      0.00%     15.76% # attempts to use FU when none available
system.cpu1.iq.fu_full::FloatSqrt                   0      0.00%     15.76% # attempts to use FU when none available
system.cpu1.iq.fu_full::SimdAdd                     0      0.00%     15.76% # attempts to use FU when none available
system.cpu1.iq.fu_full::SimdAddAcc                  0      0.00%     15.76% # attempts to use FU when none available
system.cpu1.iq.fu_full::SimdAlu                     0      0.00%     15.76% # attempts to use FU when none available
system.cpu1.iq.fu_full::SimdCmp                     0      0.00%     15.76% # attempts to use FU when none available
system.cpu1.iq.fu_full::SimdCvt                     0      0.00%     15.76% # attempts to use FU when none available
system.cpu1.iq.fu_full::SimdMisc                    0      0.00%     15.76% # attempts to use FU when none available
system.cpu1.iq.fu_full::SimdMult                    0      0.00%     15.76% # attempts to use FU when none available
system.cpu1.iq.fu_full::SimdMultAcc                 0      0.00%     15.76% # attempts to use FU when none available
system.cpu1.iq.fu_full::SimdShift                   0      0.00%     15.76% # attempts to use FU when none available
system.cpu1.iq.fu_full::SimdShiftAcc                0      0.00%     15.76% # attempts to use FU when none available
system.cpu1.iq.fu_full::SimdDiv                     0      0.00%     15.76% # attempts to use FU when none available
system.cpu1.iq.fu_full::SimdSqrt                    0      0.00%     15.76% # attempts to use FU when none available
system.cpu1.iq.fu_full::SimdFloatAdd                0      0.00%     15.76% # attempts to use FU when none available
system.cpu1.iq.fu_full::SimdFloatAlu                0      0.00%     15.76% # attempts to use FU when none available
system.cpu1.iq.fu_full::SimdFloatCmp                0      0.00%     15.76% # attempts to use FU when none available
system.cpu1.iq.fu_full::SimdFloatCvt                0      0.00%     15.76% # attempts to use FU when none available
system.cpu1.iq.fu_full::SimdFloatDiv                0      0.00%     15.76% # attempts to use FU when none available
system.cpu1.iq.fu_full::SimdFloatMisc               0      0.00%     15.76% # attempts to use FU when none available
system.cpu1.iq.fu_full::SimdFloatMult               0      0.00%     15.76% # attempts to use FU when none available
system.cpu1.iq.fu_full::SimdFloatMultAcc            0      0.00%     15.76% # attempts to use FU when none available
system.cpu1.iq.fu_full::SimdFloatSqrt               0      0.00%     15.76% # attempts to use FU when none available
system.cpu1.iq.fu_full::SimdReduceAdd               0      0.00%     15.76% # attempts to use FU when none available
system.cpu1.iq.fu_full::SimdReduceAlu               0      0.00%     15.76% # attempts to use FU when none available
system.cpu1.iq.fu_full::SimdReduceCmp               0      0.00%     15.76% # attempts to use FU when none available
system.cpu1.iq.fu_full::SimdFloatReduceAdd            0      0.00%     15.76% # attempts to use FU when none available
system.cpu1.iq.fu_full::SimdFloatReduceCmp            0      0.00%     15.76% # attempts to use FU when none available
system.cpu1.iq.fu_full::SimdAes                     0      0.00%     15.76% # attempts to use FU when none available
system.cpu1.iq.fu_full::SimdAesMix                  0      0.00%     15.76% # attempts to use FU when none available
system.cpu1.iq.fu_full::SimdSha1Hash                0      0.00%     15.76% # attempts to use FU when none available
system.cpu1.iq.fu_full::SimdSha1Hash2               0      0.00%     15.76% # attempts to use FU when none available
system.cpu1.iq.fu_full::SimdSha256Hash              0      0.00%     15.76% # attempts to use FU when none available
system.cpu1.iq.fu_full::SimdSha256Hash2             0      0.00%     15.76% # attempts to use FU when none available
system.cpu1.iq.fu_full::SimdShaSigma2               0      0.00%     15.76% # attempts to use FU when none available
system.cpu1.iq.fu_full::SimdShaSigma3               0      0.00%     15.76% # attempts to use FU when none available
system.cpu1.iq.fu_full::SimdPredAlu                 0      0.00%     15.76% # attempts to use FU when none available
system.cpu1.iq.fu_full::MemRead               3079091     75.87%     91.62% # attempts to use FU when none available
[...]
system.cpu1.dcache.WriteReq_hits::.cpu1.data      3319779                       # number of WriteReq hits
system.cpu1.dcache.WriteReq_hits::total       3319779                       # number of WriteReq hits
system.cpu1.dcache.WriteReq_misses::.cpu1.data      1338372                       # number of WriteReq misses
system.cpu1.dcache.WriteReq_misses::total      1338372                       # number of WriteReq misses
system.cpu1.dcache.WriteReq_miss_latency::.cpu1.data 105107536639                       # number of WriteReq miss cycles
system.cpu1.dcache.WriteReq_miss_latency::total 105107536639                       # number of WriteReq miss cycles
system.cpu1.dcache.WriteReq_accesses::.cpu1.data      4658151                       # number of WriteReq accesses(hits+misses)
system.cpu1.dcache.WriteReq_accesses::total      4658151                       # number of WriteReq accesses(hits+misses)
system.cpu1.dcache.WriteReq_miss_rate::.cpu1.data     0.287318                       # miss rate for WriteReq accesses
system.cpu1.dcache.WriteReq_miss_rate::total     0.287318                       # miss rate for WriteReq accesses
system.cpu1.dcache.WriteReq_avg_miss_latency::.cpu1.data 78533.872973                       # average WriteReq miss latency
system.cpu1.dcache.WriteReq_avg_miss_latency::total 78533.872973                       # average WriteReq miss latency
system.cpu1.dcache.WriteReq_mshr_hits::.cpu1.data      1115164                       # number of WriteReq MSHR hits
system.cpu1.dcache.WriteReq_mshr_hits::total      1115164                       # number of WriteReq MSHR hits
system.cpu1.dcache.WriteReq_mshr_misses::.cpu1.data       223208                       # number of WriteReq MSHR misses
system.cpu1.dcache.WriteReq_mshr_misses::total       223208                       # number of WriteReq MSHR misses
system.cpu1.dcache.WriteReq_mshr_miss_latency::.cpu1.data  12227629480                       # number of WriteReq MSHR miss cycles
system.cpu1.dcache.WriteReq_mshr_miss_latency::total  12227629480                       # number of WriteReq MSHR miss cycles
system.cpu1.dcache.WriteReq_mshr_miss_rate::.cpu1.data     0.047918                       # mshr miss rate for WriteReq accesses
system.cpu1.dcache.WriteReq_mshr_miss_rate::total     0.047918                       # mshr miss rate for WriteReq accesses
system.cpu1.dcache.WriteReq_avg_mshr_miss_latency::.cpu1.data 54781.322712                       # average WriteReq mshr miss latency
system.cpu1.dcache.WriteReq_avg_mshr_miss_latency::total 54781.322712                       # average WriteReq mshr miss latency
system.cpu1.dcache.LoadLockedReq_hits::.cpu1.data       137916                       # number of LoadLockedReq hits
system.cpu1.dcache.LoadLockedReq_hits::total       137916                       # number of LoadLockedReq hits
system.cpu1.dcache.LoadLockedReq_misses::.cpu1.data          808                       # number of LoadLockedReq misses
system.cpu1.dcache.LoadLockedReq_misses::total          808                       # number of LoadLockedReq misses
system.cpu1.dcache.LoadLockedReq_miss_latency::.cpu1.data     43754000                       # number of LoadLockedReq miss cycles
system.cpu1.dcache.LoadLockedReq_miss_latency::total     43754000                       # number of LoadLockedReq miss cycles
system.cpu1.dcache.LoadLockedReq_accesses::.cpu1.data       138724                       # number of LoadLockedReq accesses(hits+misses)
system.cpu1.dcache.LoadLockedReq_accesses::total       138724                       # number of LoadLockedReq accesses(hits+misses)
system.cpu1.dcache.LoadLockedReq_miss_rate::.cpu1.data     0.005825                       # miss rate for LoadLockedReq accesses
system.cpu1.dcache.LoadLockedReq_miss_rate::total     0.005825                       # miss rate for LoadLockedReq accesses
system.cpu1.dcache.LoadLockedReq_avg_miss_latency::.cpu1.data 54150.990099                       # average LoadLockedReq miss latency
system.cpu1.dcache.LoadLockedReq_avg_miss_latency::total 54150.990099                       # average LoadLockedReq miss latency
system.cpu1.dcache.LoadLockedReq_mshr_hits::.cpu1.data          311                       # number of LoadLockedReq MSHR hits
system.cpu1.dcache.LoadLockedReq_mshr_hits::total          311                       # number of LoadLockedReq MSHR hits
system.cpu1.dcache.LoadLockedReq_mshr_misses::.cpu1.data          497                       # number of LoadLockedReq MSHR misses
system.cpu1.dcache.LoadLockedReq_mshr_misses::total          497                       # number of LoadLockedReq MSHR misses
system.cpu1.dcache.LoadLockedReq_mshr_miss_latency::.cpu1.data     22662500                       # number of LoadLockedReq MSHR miss cycles
system.cpu1.dcache.LoadLockedReq_mshr_miss_latency::total     22662500                       # number of LoadLockedReq MSHR miss cycles
system.cpu1.dcache.LoadLockedReq_mshr_miss_rate::.cpu1.data     0.003583                       # mshr miss rate for LoadLockedReq accesses
system.cpu1.dcache.LoadLockedReq_mshr_miss_rate::total     0.003583                       # mshr miss rate for LoadLockedReq accesses
system.cpu1.dcache.LoadLockedReq_avg_mshr_miss_latency::.cpu1.data 45598.591549                       # average LoadLockedReq mshr miss latency
system.cpu1.dcache.LoadLockedReq_avg_mshr_miss_latency::total 45598.591549                       # average LoadLockedReq mshr miss latency
system.cpu1.dcache.StoreCondReq_hits::.cpu1.data       136571                       # number of StoreCondReq hits
system.cpu1.dcache.StoreCondReq_hits::total       136571                       # number of StoreCondReq hits
system.cpu1.dcache.StoreCondReq_misses::.cpu1.data         1979                       # number of StoreCondReq misses
system.cpu1.dcache.StoreCondReq_misses::total         1979                       # number of StoreCondReq misses
system.cpu1.dcache.StoreCondReq_miss_latency::.cpu1.data     13773500                       # number of StoreCondReq miss cycles
system.cpu1.dcache.StoreCondReq_miss_latency::total     13773500                       # number of StoreCondReq miss cycles
system.cpu1.dcache.StoreCondReq_accesses::.cpu1.data       138550                       # number of StoreCondReq accesses(hits+misses)
system.cpu1.dcache.StoreCondReq_accesses::total       138550                       # number of StoreCondReq accesses(hits+misses)
system.cpu1.dcache.StoreCondReq_miss_rate::.cpu1.data     0.014284                       # miss rate for StoreCondReq accesses
system.cpu1.dcache.StoreCondReq_miss_rate::total     0.014284                       # miss rate for StoreCondReq accesses
system.cpu1.dcache.StoreCondReq_avg_miss_latency::.cpu1.data  6959.828196                       # average StoreCondReq miss latency
system.cpu1.dcache.StoreCondReq_avg_miss_latency::total  6959.828196                       # average StoreCondReq miss latency
system.cpu1.dcache.StoreCondReq_mshr_misses::.cpu1.data         1928                       # number of StoreCondReq MSHR misses
system.cpu1.dcache.StoreCondReq_mshr_misses::total         1928                       # number of StoreCondReq MSHR misses
system.cpu1.dcache.StoreCondReq_mshr_miss_latency::.cpu1.data     11854500                       # number of StoreCondReq MSHR miss cycles
system.cpu1.dcache.StoreCondReq_mshr_miss_latency::total     11854500                       # number of StoreCondReq MSHR miss cycles
system.cpu1.dcache.StoreCondReq_mshr_miss_rate::.cpu1.data     0.013916                       # mshr miss rate for StoreCondReq accesses
system.cpu1.dcache.StoreCondReq_mshr_miss_rate::total     0.013916                       # mshr miss rate for StoreCondReq accesses
system.cpu1.dcache.StoreCondReq_avg_mshr_miss_latency::.cpu1.data  6148.599585                       # average StoreCondReq mshr miss latency
system.cpu1.dcache.StoreCondReq_avg_mshr_miss_latency::total  6148.599585                       # average StoreCondReq mshr miss latency
system.cpu1.dcache.StoreCondFailReq_miss_latency::.cpu1.data       110500                       # number of StoreCondFailReq miss cycles
system.cpu1.dcache.StoreCondFailReq_miss_latency::total       110500                       # number of StoreCondFailReq miss cycles
system.cpu1.dcache.StoreCondFailReq_avg_miss_latency::.cpu1.data          inf                       # average StoreCondFailReq miss latency
system.cpu1.dcache.StoreCondFailReq_avg_miss_latency::total          inf                       # average StoreCondFailReq miss latency
system.cpu1.dcache.StoreCondFailReq_mshr_miss_latency::.cpu1.data       101500                       # number of StoreCondFailReq MSHR miss cycles
system.cpu1.dcache.StoreCondFailReq_mshr_miss_latency::total       101500                       # number of StoreCondFailReq MSHR miss cycles
system.cpu1.dcache.StoreCondFailReq_avg_mshr_miss_latency::.cpu1.data          inf                       # average StoreCondFailReq mshr miss latency
system.cpu1.dcache.StoreCondFailReq_avg_mshr_miss_latency::total          inf                       # average StoreCondFailReq mshr miss latency
system.cpu1.dcache.SwapReq_hits::.cpu1.data         1826                       # number of SwapReq hits
system.cpu1.dcache.SwapReq_hits::total           1826                       # number of SwapReq hits
system.cpu1.dcache.SwapReq_misses::.cpu1.data         7109                       # number of SwapReq misses
system.cpu1.dcache.SwapReq_misses::total         7109                       # number of SwapReq misses
system.cpu1.dcache.SwapReq_miss_latency::.cpu1.data    313434998                       # number of SwapReq miss cycles
system.cpu1.dcache.SwapReq_miss_latency::total    313434998                       # number of SwapReq miss cycles
system.cpu1.dcache.SwapReq_accesses::.cpu1.data         8935                       # number of SwapReq accesses(hits+misses)
system.cpu1.dcache.SwapReq_accesses::total         8935                       # number of SwapReq accesses(hits+misses)
system.cpu1.dcache.SwapReq_miss_rate::.cpu1.data     0.795635                       # miss rate for SwapReq accesses
system.cpu1.dcache.SwapReq_miss_rate::total     0.795635                       # miss rate for SwapReq accesses
system.cpu1.dcache.SwapReq_avg_miss_latency::.cpu1.data 44089.885779                       # average SwapReq miss latency
system.cpu1.dcache.SwapReq_avg_miss_latency::total 44089.885779                       # average SwapReq miss latency
system.cpu1.dcache.SwapReq_mshr_misses::.cpu1.data         7109                       # number of SwapReq MSHR misses
system.cpu1.dcache.SwapReq_mshr_misses::total         7109                       # number of SwapReq MSHR misses
system.cpu1.dcache.SwapReq_mshr_miss_latency::.cpu1.data    306325998                       # number of SwapReq MSHR miss cycles
system.cpu1.dcache.SwapReq_mshr_miss_latency::total    306325998                       # number of SwapReq MSHR miss cycles
system.cpu1.dcache.SwapReq_mshr_miss_rate::.cpu1.data     0.795635                       # mshr miss rate for SwapReq accesses
system.cpu1.dcache.SwapReq_mshr_miss_rate::total     0.795635                       # mshr miss rate for SwapReq accesses
system.cpu1.dcache.SwapReq_avg_mshr_miss_latency::.cpu1.data 43089.885779                       # average SwapReq mshr miss latency
system.cpu1.dcache.SwapReq_avg_mshr_miss_latency::total 43089.885779                       # average SwapReq mshr miss latency
system.cpu1.dcache.tags.pwrStateResidencyTicks::UNDEFINED 219498685500                       # Cumulative time (in ticks) in various power states
system.cpu1.dcache.tags.tagsinuse           31.549673                       # Cycle average of tags in use
system.cpu1.dcache.tags.total_refs           48955369                       # Total number of references to valid blocks.
system.cpu1.dcache.tags.sampled_refs          5405047                       # Sample count of references to valid blocks.
system.cpu1.dcache.tags.avg_refs             9.057344                       # Average number of references to valid blocks.
system.cpu1.dcache.tags.warmup_cycle                0                       # Cycle when the warmup percentage was hit.
system.cpu1.dcache.tags.occ_blocks::.cpu1.data    31.549673                       # Average occupied blocks per requestor
system.cpu1.dcache.tags.occ_percent::.cpu1.data     0.985927                       # Average percentage of cache occupancy
system.cpu1.dcache.tags.occ_percent::total     0.985927                       # Average percentage of cache occupancy
system.cpu1.dcache.tags.occ_task_id_blocks::1024           28                       # Occupied blocks per task id
system.cpu1.dcache.tags.age_task_id_blocks_1024::1           28                       # Occupied blocks per task id
system.cpu1.dcache.tags.occ_task_id_percent::1024     0.875000                       # Percentage of cache occupancy per task id
system.cpu1.dcache.tags.tag_accesses        132837897                       # Number of tag accesses
system.cpu1.dcache.tags.data_accesses       132837897                       # Number of data accesses
system.cpu_clk_domain.clock                       500                       # Clock period in ticks
system.tol2bus.pwrStateResidencyTicks::UNDEFINED 219498685500                       # Cumulative time (in ticks) in various power states
system.tol2bus.trans_dist::ReadResp          10803859                       # Transaction distribution
system.tol2bus.trans_dist::WritebackDirty      2068850                       # Transaction distribution
system.tol2bus.trans_dist::WritebackClean      9816433                       # Transaction distribution
system.tol2bus.trans_dist::CleanEvict        19153708                       # Transaction distribution
system.tol2bus.trans_dist::HardPFReq          9800418                       # Transaction distribution
system.tol2bus.trans_dist::HardPFResp               2                       # Transaction distribution
system.tol2bus.trans_dist::UpgradeReq          123132                       # Transaction distribution
system.tol2bus.trans_dist::SCUpgradeReq          4180                       # Transaction distribution
system.tol2bus.trans_dist::UpgradeResp         127312                       # Transaction distribution
system.tol2bus.trans_dist::SCUpgradeFailReq           21                       # Transaction distribution
system.tol2bus.trans_dist::UpgradeFailResp           21                       # Transaction distribution
system.tol2bus.trans_dist::ReadExReq           409083                       # Transaction distribution
system.tol2bus.trans_dist::ReadExResp          409083                       # Transaction distribution
system.tol2bus.trans_dist::ReadCleanReq        143443                       # Transaction distribution
system.tol2bus.trans_dist::ReadSharedReq     10660415                       # Transaction distribution
system.tol2bus.trans_dist::InvalidateReq         4332                       # Transaction distribution
system.tol2bus.trans_dist::InvalidateResp         4332                       # Transaction distribution
system.tol2bus.pkt_count_system.cpu0.icache.mem_side::system.l2.cpu_side       357149                       # Packet count per connected master and slave (bytes)
system.tol2bus.pkt_count_system.cpu0.dcache.mem_side::system.l2.cpu_side     16908924                       # Packet count per connected master and slave (bytes)
system.tol2bus.pkt_count_system.cpu1.icache.mem_side::system.l2.cpu_side        73182                       # Packet count per connected master and slave (bytes)
system.tol2bus.pkt_count_system.cpu1.dcache.mem_side::system.l2.cpu_side     16116400                       # Packet count per connected master and slave (bytes)
system.tol2bus.pkt_count::total              33455655                       # Packet count per connected master and slave (bytes)
system.tol2bus.pkt_size_system.cpu0.icache.mem_side::system.l2.cpu_side     15238400                       # Cumulative packet size per connected master and slave (bytes)
system.tol2bus.pkt_size_system.cpu0.dcache.mem_side::system.l2.cpu_side    714227136                       # Cumulative packet size per connected master and slave (bytes)
system.tol2bus.pkt_size_system.cpu1.icache.mem_side::system.l2.cpu_side      3122432                       # Cumulative packet size per connected master and slave (bytes)
system.tol2bus.pkt_size_system.cpu1.dcache.mem_side::system.l2.cpu_side    680683712                       # Cumulative packet size per connected master and slave (bytes)
system.tol2bus.pkt_size::total             1413271680                       # Cumulative packet size per connected master and slave (bytes)
system.tol2bus.snoops                        30072971                       # Total snoops (count)
system.tol2bus.snoopTraffic                  65016320                       # Total snoop traffic (bytes)
system.tol2bus.snoop_fanout::samples         41138741                       # Request fanout histogram
system.tol2bus.snoop_fanout::mean            0.228712                       # Request fanout histogram
system.tol2bus.snoop_fanout::stdev           0.438892                       # Request fanout histogram
system.tol2bus.snoop_fanout::underflows             0      0.00%      0.00% # Request fanout histogram
system.tol2bus.snoop_fanout::0               32063506     77.94%     77.94% # Request fanout histogram
system.tol2bus.snoop_fanout::1                8741541     21.25%     99.19% # Request fanout histogram
system.tol2bus.snoop_fanout::2                 333694      0.81%    100.00% # Request fanout histogram
system.tol2bus.snoop_fanout::3                      0      0.00%    100.00% # Request fanout histogram
system.tol2bus.snoop_fanout::4                      0      0.00%    100.00% # Request fanout histogram
system.tol2bus.snoop_fanout::5                      0      0.00%    100.00% # Request fanout histogram
system.tol2bus.snoop_fanout::6                      0      0.00%    100.00% # Request fanout histogram
system.tol2bus.snoop_fanout::7                      0      0.00%    100.00% # Request fanout histogram
system.tol2bus.snoop_fanout::8                      0      0.00%    100.00% # Request fanout histogram
system.tol2bus.snoop_fanout::overflows              0      0.00%    100.00% # Request fanout histogram
system.tol2bus.snoop_fanout::min_value              0                       # Request fanout histogram
system.tol2bus.snoop_fanout::max_value              2                       # Request fanout histogram
system.tol2bus.snoop_fanout::total           41138741                       # Request fanout histogram
system.tol2bus.reqLayer0.occupancy        22246146525                       # Layer occupancy (ticks)
system.tol2bus.reqLayer0.utilization             10.1                       # Layer utilization (%)
system.tol2bus.respLayer1.occupancy        8550168760                       # Layer occupancy (ticks)
system.tol2bus.respLayer1.utilization             3.9                       # Layer utilization (%)
system.tol2bus.respLayer0.occupancy         178706237                       # Layer occupancy (ticks)
system.tol2bus.respLayer0.utilization             0.1                       # Layer utilization (%)
system.tol2bus.respLayer3.occupancy        8158272019                       # Layer occupancy (ticks)
system.tol2bus.respLayer3.utilization             3.7                       # Layer utilization (%)
system.tol2bus.respLayer2.occupancy          36779622                       # Layer occupancy (ticks)
system.tol2bus.respLayer2.utilization             0.0                       # Layer utilization (%)
system.tol2bus.snoopLayer0.occupancy             3001                       # Layer occupancy (ticks)
system.tol2bus.snoopLayer0.utilization            0.0                       # Layer utilization (%)

---------- End Simulation Statistics   ----------
