
---------- Begin Simulation Statistics ----------
final_tick                               2025666463500                       # Number of ticks from beginning of simulation (restored from checkpoints and never reset)
host_inst_rate                                  84835                       # Simulator instruction rate (inst/s)
host_mem_usage                                 703608                       # Number of bytes of host memory used
host_op_rate                                    85110                       # Simulator op (including micro ops) rate (op/s)
host_seconds                                 27756.63                       # Real time elapsed on the host
host_tick_rate                               72979560                       # Simulator tick rate (ticks/s)
sim_freq                                 1000000000000                       # Frequency of simulated ticks
sim_insts                                  2354745678                       # Number of instructions simulated
sim_ops                                    2362354575                       # Number of ops (including micro ops) simulated
sim_seconds                                  2.025666                       # Number of seconds simulated
sim_ticks                                2025666463500                       # Number of ticks simulated
system.cpu0.branchPred.BTBCorrect                   0                       # Number of correct BTB predictions (this stat may not work properly.
system.cpu0.branchPred.BTBHitPct            86.831158                       # BTB Hit Percentage
system.cpu0.branchPred.BTBHits              305786340                       # Number of BTB hits
system.cpu0.branchPred.BTBLookups           352161997                       # Number of BTB lookups
system.cpu0.branchPred.RASInCorrect                 0                       # Number of incorrect RAS predictions.
system.cpu0.branchPred.condIncorrect         31424474                       # Number of conditional branches incorrect
system.cpu0.branchPred.condPredicted        462990967                       # Number of conditional branches predicted
system.cpu0.branchPred.indirectHits          39460750                       # Number of indirect target hits.
system.cpu0.branchPred.indirectLookups       40164586                       # Number of indirect predictor lookups.
system.cpu0.branchPred.indirectMisses          703836                       # Number of indirect misses.
system.cpu0.branchPred.lookups              596402834                       # Number of BP lookups
system.cpu0.branchPred.usedRAS                      0                       # Number of times the RAS was used to get a target.
system.cpu0.branchPredindirectMispredicted      3959480                       # Number of mispredicted indirect branches.
system.cpu0.commit.amos                       3801859                       # Number of atomic instructions committed
system.cpu0.commit.branchMispredicts         17730889                       # The number of times a branch was mispredicted
system.cpu0.commit.branches                 554996913                       # Number of branches committed
system.cpu0.commit.bw_lim_events             59152831                       # number cycles where commit BW limit reached
system.cpu0.commit.commitNonSpecStalls       11419465                       # The number of times commit has been forced to stall to communicate backwards
system.cpu0.commit.commitSquashedInsts      126629335                       # The number of squashed insts skipped by commit
system.cpu0.commit.committedInsts          2224679510                       # Number of instructions committed
system.cpu0.commit.committedOps            2228486655                       # Number of ops (including micro ops) committed
system.cpu0.commit.committed_per_cycle::samples   3720877205                       # Number of insts commited each cycle
system.cpu0.commit.committed_per_cycle::mean     0.598914                       # Number of insts commited each cycle
system.cpu0.commit.committed_per_cycle::stdev     1.349265                       # Number of insts commited each cycle
system.cpu0.commit.committed_per_cycle::underflows            0      0.00%      0.00% # Number of insts commited each cycle
system.cpu0.commit.committed_per_cycle::0   2637626794     70.89%     70.89% # Number of insts commited each cycle
system.cpu0.commit.committed_per_cycle::1    646692610     17.38%     88.27% # Number of insts commited each cycle
system.cpu0.commit.committed_per_cycle::2    149322064      4.01%     92.28% # Number of insts commited each cycle
system.cpu0.commit.committed_per_cycle::3    151110246      4.06%     96.34% # Number of insts commited each cycle
system.cpu0.commit.committed_per_cycle::4     47496706      1.28%     97.62% # Number of insts commited each cycle
system.cpu0.commit.committed_per_cycle::5     15473879      0.42%     98.03% # Number of insts commited each cycle
system.cpu0.commit.committed_per_cycle::6      8774213      0.24%     98.27% # Number of insts commited each cycle
system.cpu0.commit.committed_per_cycle::7      5227862      0.14%     98.41% # Number of insts commited each cycle
system.cpu0.commit.committed_per_cycle::8     59152831      1.59%    100.00% # Number of insts commited each cycle
system.cpu0.commit.committed_per_cycle::overflows            0      0.00%    100.00% # Number of insts commited each cycle
system.cpu0.commit.committed_per_cycle::min_value            0                       # Number of insts commited each cycle
system.cpu0.commit.committed_per_cycle::max_value            8                       # Number of insts commited each cycle
system.cpu0.commit.committed_per_cycle::total   3720877205                       # Number of insts commited each cycle
system.cpu0.commit.fp_insts                        50                       # Number of committed floating point instructions.
system.cpu0.commit.function_calls            44162204                       # Number of function calls committed.
system.cpu0.commit.int_insts               2150792433                       # Number of committed integer instructions.
system.cpu0.commit.loads                    691527127                       # Number of loads committed
system.cpu0.commit.membars                    7608877                       # Number of memory barriers committed
system.cpu0.commit.op_class_0::No_OpClass      7608883      0.34%      0.34% # Class of committed instruction
system.cpu0.commit.op_class_0::IntAlu      1238683197     55.58%     55.93% # Class of committed instruction
system.cpu0.commit.op_class_0::IntMult       18318071      0.82%     56.75% # Class of committed instruction
system.cpu0.commit.op_class_0::IntDiv         3801411      0.17%     56.92% # Class of committed instruction
system.cpu0.commit.op_class_0::FloatAdd             0      0.00%     56.92% # Class of committed instruction
system.cpu0.commit.op_class_0::FloatCmp             4      0.00%     56.92% # Class of committed instruction
system.cpu0.commit.op_class_0::FloatCvt            12      0.00%     56.92% # Class of committed instruction
system.cpu0.commit.op_class_0::FloatMult            0      0.00%     56.92% # Class of committed instruction
system.cpu0.commit.op_class_0::FloatMultAcc            0      0.00%     56.92% # Class of committed instruction
system.cpu0.commit.op_class_0::FloatDiv             2      0.00%     56.92% # Class of committed instruction
system.cpu0.commit.op_class_0::FloatMisc            4      0.00%     56.92% # Class of committed instruction
system.cpu0.commit.op_class_0::FloatSqrt            0      0.00%     56.92% # Class of committed instruction
system.cpu0.commit.op_class_0::SimdAdd              0      0.00%     56.92% # Class of committed instruction
system.cpu0.commit.op_class_0::SimdAddAcc            0      0.00%     56.92% # Class of committed instruction
system.cpu0.commit.op_class_0::SimdAlu              0      0.00%     56.92% # Class of committed instruction
system.cpu0.commit.op_class_0::SimdCmp              0      0.00%     56.92% # Class of committed instruction
system.cpu0.commit.op_class_0::SimdCvt              0      0.00%     56.92% # Class of committed instruction
system.cpu0.commit.op_class_0::SimdMisc             0      0.00%     56.92% # Class of committed instruction
system.cpu0.commit.op_class_0::SimdMult             0      0.00%     56.92% # Class of committed instruction
system.cpu0.commit.op_class_0::SimdMultAcc            0      0.00%     56.92% # Class of committed instruction
system.cpu0.commit.op_class_0::SimdShift            0      0.00%     56.92% # Class of committed instruction
system.cpu0.commit.op_class_0::SimdShiftAcc            0      0.00%     56.92% # Class of committed instruction
system.cpu0.commit.op_class_0::SimdDiv              0      0.00%     56.92% # Class of committed instruction
system.cpu0.commit.op_class_0::SimdSqrt             0      0.00%     56.92% # Class of committed instruction
system.cpu0.commit.op_class_0::SimdFloatAdd            0      0.00%     56.92% # Class of committed instruction
system.cpu0.commit.op_class_0::SimdFloatAlu            0      0.00%     56.92% # Class of committed instruction
system.cpu0.commit.op_class_0::SimdFloatCmp            0      0.00%     56.92% # Class of committed instruction
system.cpu0.commit.op_class_0::SimdFloatCvt            0      0.00%     56.92% # Class of committed instruction
system.cpu0.commit.op_class_0::SimdFloatDiv            0      0.00%     56.92% # Class of committed instruction
system.cpu0.commit.op_class_0::SimdFloatMisc            0      0.00%     56.92% # Class of committed instruction
system.cpu0.commit.op_class_0::SimdFloatMult            0      0.00%     56.92% # Class of committed instruction
system.cpu0.commit.op_class_0::SimdFloatMultAcc            0      0.00%     56.92% # Class of committed instruction
system.cpu0.commit.op_class_0::SimdFloatSqrt            0      0.00%     56.92% # Class of committed instruction
system.cpu0.commit.op_class_0::SimdReduceAdd            0      0.00%     56.92% # Class of committed instruction
system.cpu0.commit.op_class_0::SimdReduceAlu            0      0.00%     56.92% # Class of committed instruction
system.cpu0.commit.op_class_0::SimdReduceCmp            0      0.00%     56.92% # Class of committed instruction
system.cpu0.commit.op_class_0::SimdFloatReduceAdd            0      0.00%     56.92% # Class of committed instruction
system.cpu0.commit.op_class_0::SimdFloatReduceCmp            0      0.00%     56.92% # Class of committed instruction
system.cpu0.commit.op_class_0::SimdAes              0      0.00%     56.92% # Class of committed instruction
system.cpu0.commit.op_class_0::SimdAesMix            0      0.00%     56.92% # Class of committed instruction
system.cpu0.commit.op_class_0::SimdSha1Hash            0      0.00%     56.92% # Class of committed instruction
system.cpu0.commit.op_class_0::SimdSha1Hash2            0      0.00%     56.92% # Class of committed instruction
system.cpu0.commit.op_class_0::SimdSha256Hash            0      0.00%     56.92% # Class of committed instruction
system.cpu0.commit.op_class_0::SimdSha256Hash2            0      0.00%     56.92% # Class of committed instruction
system.cpu0.commit.op_class_0::SimdShaSigma2            0      0.00%     56.92% # Class of committed instruction
system.cpu0.commit.op_class_0::SimdShaSigma3            0      0.00%     56.92% # Class of committed instruction
system.cpu0.commit.op_class_0::SimdPredAlu            0      0.00%     56.92% # Class of committed instruction
system.cpu0.commit.op_class_0::MemRead      695328978     31.20%     88.12% # Class of committed instruction
system.cpu0.commit.op_class_0::MemWrite     264746065     11.88%    100.00% # Class of committed instruction
system.cpu0.commit.op_class_0::FloatMemRead            8      0.00%    100.00% # Class of committed instruction
system.cpu0.commit.op_class_0::FloatMemWrite           20      0.00%    100.00% # Class of committed instruction
system.cpu0.commit.op_class_0::IprAccess            0      0.00%    100.00% # Class of committed instruction
system.cpu0.commit.op_class_0::InstPrefetch            0      0.00%    100.00% # Class of committed instruction
system.cpu0.commit.op_class_0::total       2228486655                       # Class of committed instruction
system.cpu0.commit.refs                     960075071                       # Number of memory references committed
system.cpu0.commit.swp_count                        0                       # Number of s/w prefetches committed
system.cpu0.commit.vec_insts                        0                       # Number of committed Vector instructions.
system.cpu0.committedInsts                 2224679510                       # Number of Instructions Simulated
system.cpu0.committedOps                   2228486655                       # Number of Ops (including micro ops) Simulated
system.cpu0.cpi                              1.817180                       # CPI: Cycles Per Instruction
system.cpu0.cpi_total                        1.817180                       # CPI: Total CPI of All Threads
system.cpu0.decode.BlockedCycles            734645751                       # Number of cycles decode is blocked
system.cpu0.decode.BranchMispred             13706586                       # Number of times decode detected a branch misprediction
system.cpu0.decode.BranchResolved           298813611                       # Number of times decode resolved a branch
system.cpu0.decode.DecodedInsts            2393639483                       # Number of instructions handled by decode
system.cpu0.decode.IdleCycles              1350650270                       # Number of cycles decode is idle
system.cpu0.decode.RunCycles               1635888351                       # Number of cycles decode is running
system.cpu0.decode.SquashCycles              17746866                       # Number of cycles decode is squashing
system.cpu0.decode.SquashedInsts             20096262                       # Number of squashed instructions handled by decode
system.cpu0.decode.UnblockCycles             10907347                       # Number of cycles decode is unblocking
system.cpu0.dtb.accesses                            0                       # DTB accesses
system.cpu0.dtb.hits                                0                       # DTB hits
system.cpu0.dtb.misses                              0                       # DTB misses
system.cpu0.dtb.read_accesses                       0                       # DTB read accesses
system.cpu0.dtb.read_hits                           0                       # DTB read hits
system.cpu0.dtb.read_misses                         0                       # DTB read misses
system.cpu0.dtb.write_accesses                      0                       # DTB write accesses
system.cpu0.dtb.write_hits                          0                       # DTB write hits
system.cpu0.dtb.write_misses                        0                       # DTB write misses
system.cpu0.fetch.Branches                  596402834                       # Number of branches that fetch encountered
system.cpu0.fetch.CacheLines                405144750                       # Number of cache lines fetched
system.cpu0.fetch.Cycles                   2395959335                       # Number of cycles fetch has run and was not squashing or blocked
system.cpu0.fetch.IcacheSquashes             12596926                       # Number of outstanding Icache misses that were squashed
system.cpu0.fetch.IcacheWaitRetryStallCycles          105                       # Number of stall cycles due to full MSHR
system.cpu0.fetch.Insts                    2433495850                       # Number of instructions fetch has processed
system.cpu0.fetch.MiscStallCycles                  74                       # Number of cycles fetch has spent waiting on interrupts, or bad addresses, or out of MSHRs
system.cpu0.fetch.PendingTrapStallCycles          366                       # Number of stall cycles due to pending traps
system.cpu0.fetch.SquashCycles               62881018                       # Number of cycles fetch has spent squashing
system.cpu0.fetch.branchRate                 0.147528                       # Number of branch fetches per cycle
system.cpu0.fetch.icacheStallCycles        1322438196                       # Number of cycles fetch is stalled on an Icache miss
system.cpu0.fetch.predictedBranches         345247090                       # Number of branches that fetch has predicted taken
system.cpu0.fetch.rate                       0.601957                       # Number of inst fetches per cycle
system.cpu0.fetch.rateDist::samples        3749838585                       # Number of instructions fetched each cycle (Total)
system.cpu0.fetch.rateDist::mean             0.649976                       # Number of instructions fetched each cycle (Total)
system.cpu0.fetch.rateDist::stdev            0.908598                       # Number of instructions fetched each cycle (Total)
system.cpu0.fetch.rateDist::underflows              0      0.00%      0.00% # Number of instructions fetched each cycle (Total)
system.cpu0.fetch.rateDist::0              2039338406     54.38%     54.38% # Number of instructions fetched each cycle (Total)
system.cpu0.fetch.rateDist::1              1263321175     33.69%     88.07% # Number of instructions fetched each cycle (Total)
system.cpu0.fetch.rateDist::2               234944112      6.27%     94.34% # Number of instructions fetched each cycle (Total)
system.cpu0.fetch.rateDist::3               168360361      4.49%     98.83% # Number of instructions fetched each cycle (Total)
system.cpu0.fetch.rateDist::4                32889435      0.88%     99.71% # Number of instructions fetched each cycle (Total)
system.cpu0.fetch.rateDist::5                 6070212      0.16%     99.87% # Number of instructions fetched each cycle (Total)
system.cpu0.fetch.rateDist::6                 1107287      0.03%     99.90% # Number of instructions fetched each cycle (Total)
system.cpu0.fetch.rateDist::7                     442      0.00%     99.90% # Number of instructions fetched each cycle (Total)
system.cpu0.fetch.rateDist::8                 3807155      0.10%    100.00% # Number of instructions fetched each cycle (Total)
system.cpu0.fetch.rateDist::overflows               0      0.00%    100.00% # Number of instructions fetched each cycle (Total)
system.cpu0.fetch.rateDist::min_value               0                       # Number of instructions fetched each cycle (Total)
system.cpu0.fetch.rateDist::max_value               8                       # Number of instructions fetched each cycle (Total)
system.cpu0.fetch.rateDist::total          3749838585                       # Number of instructions fetched each cycle (Total)
system.cpu0.fp_regfile_reads                       44                       # number of floating regfile reads
system.cpu0.fp_regfile_writes                      23                       # number of floating regfile writes
system.cpu0.idleCycles                      292805004                       # Total number of cycles that the CPU has spent unscheduled due to idling
system.cpu0.iew.branchMispredicts            18310817                       # Number of branch mispredicts detected at execute
system.cpu0.iew.exec_branches               566335371                       # Number of branches executed
system.cpu0.iew.exec_nop                            0                       # number of nop insts executed
system.cpu0.iew.exec_rate                    0.577595                       # Inst execution rate
system.cpu0.iew.exec_refs                  1034130119                       # number of memory reference insts executed
system.cpu0.iew.exec_stores                 275366267                       # Number of stores executed
system.cpu0.iew.exec_swp                            0                       # number of swp insts executed
system.cpu0.iew.iewBlockCycles              596160509                       # Number of cycles IEW is blocking
system.cpu0.iew.iewDispLoadInsts            756629643                       # Number of dispatched load instructions
system.cpu0.iew.iewDispNonSpecInsts           3810814                       # Number of dispatched non-speculative instructions
system.cpu0.iew.iewDispSquashedInsts          8893944                       # Number of squashed instructions skipped by dispatch
system.cpu0.iew.iewDispStoreInsts           277138733                       # Number of dispatched store instructions
system.cpu0.iew.iewDispatchedInsts         2355065036                       # Number of instructions dispatched to IQ
system.cpu0.iew.iewExecLoadInsts            758763852                       # Number of load instructions executed
system.cpu0.iew.iewExecSquashedInsts         17424109                       # Number of squashed instructions skipped in execute
system.cpu0.iew.iewExecutedInsts           2335009625                       # Number of executed instructions
system.cpu0.iew.iewIQFullEvents               3784218                       # Number of times the IQ has become full, causing a stall
system.cpu0.iew.iewIdleCycles                       0                       # Number of cycles IEW is idle
system.cpu0.iew.iewLSQFullEvents             10963698                       # Number of times the LSQ has become full, causing a stall
system.cpu0.iew.iewSquashCycles              17746866                       # Number of cycles IEW is squashing
system.cpu0.iew.iewUnblockCycles             18812732                       # Number of cycles IEW is unblocking
system.cpu0.iew.lsq.thread0.blockedLoads            0                       # Number of blocked loads due to partial load-store forwarding
system.cpu0.iew.lsq.thread0.cacheBlocked       223537                       # Number of times an access to memory failed due to the cache being blocked
system.cpu0.iew.lsq.thread0.forwLoads        36973964                       # Number of loads that had data forwarded from stores
system.cpu0.iew.lsq.thread0.ignoredResponses        99444                       # Number of memory responses ignored because the instruction is squashed
system.cpu0.iew.lsq.thread0.invAddrLoads            0                       # Number of loads ignored due to an invalid address
system.cpu0.iew.lsq.thread0.invAddrSwpfs            0                       # Number of software prefetches ignored due to an invalid address
system.cpu0.iew.lsq.thread0.memOrderViolation        15934                       # Number of memory ordering violations
system.cpu0.iew.lsq.thread0.rescheduledLoads      8741146                       # Number of loads that were rescheduled
system.cpu0.iew.lsq.thread0.squashedLoads     65102516                       # Number of loads squashed
system.cpu0.iew.lsq.thread0.squashedStores      8590789                       # Number of stores squashed
system.cpu0.iew.memOrderViolationEvents         15934                       # Number of memory order violations
system.cpu0.iew.predictedNotTakenIncorrect      1998775                       # Number of branches that were predicted not taken incorrectly
system.cpu0.iew.predictedTakenIncorrect      16312042                       # Number of branches that were predicted taken incorrectly
system.cpu0.iew.wb_consumers               1041653366                       # num instructions consuming a value
system.cpu0.iew.wb_count                   2311699766                       # cumulative count of insts written-back
system.cpu0.iew.wb_fanout                    0.840314                       # average fanout of values written-back
system.cpu0.iew.wb_producers                875315559                       # num instructions producing a value
system.cpu0.iew.wb_rate                      0.571829                       # insts written-back per cycle
system.cpu0.iew.wb_sent                    2311900875                       # cumulative count of insts sent to commit
system.cpu0.int_regfile_reads              2849257412                       # number of integer regfile reads
system.cpu0.int_regfile_writes             1486844254                       # number of integer regfile writes
system.cpu0.ipc                              0.550303                       # IPC: Instructions Per Cycle
system.cpu0.ipc_total                        0.550303                       # IPC: Total IPC of All Threads
system.cpu0.iq.FU_type_0::No_OpClass          7611824      0.32%      0.32% # Type of FU issued
system.cpu0.iq.FU_type_0::IntAlu           1283908172     54.58%     54.90% # Type of FU issued
system.cpu0.iq.FU_type_0::IntMult            18649962      0.79%     55.69% # Type of FU issued
system.cpu0.iq.FU_type_0::IntDiv              3802422      0.16%     55.86% # Type of FU issued
system.cpu0.iq.FU_type_0::FloatAdd                  0      0.00%     55.86% # Type of FU issued
system.cpu0.iq.FU_type_0::FloatCmp                  4      0.00%     55.86% # Type of FU issued
system.cpu0.iq.FU_type_0::FloatCvt                 12      0.00%     55.86% # Type of FU issued
system.cpu0.iq.FU_type_0::FloatMult                 0      0.00%     55.86% # Type of FU issued
system.cpu0.iq.FU_type_0::FloatMultAcc              0      0.00%     55.86% # Type of FU issued
system.cpu0.iq.FU_type_0::FloatDiv                  2      0.00%     55.86% # Type of FU issued
system.cpu0.iq.FU_type_0::FloatMisc                 4      0.00%     55.86% # Type of FU issued
system.cpu0.iq.FU_type_0::FloatSqrt                 0      0.00%     55.86% # Type of FU issued
system.cpu0.iq.FU_type_0::SimdAdd                   0      0.00%     55.86% # Type of FU issued
system.cpu0.iq.FU_type_0::SimdAddAcc                0      0.00%     55.86% # Type of FU issued
system.cpu0.iq.FU_type_0::SimdAlu                   0      0.00%     55.86% # Type of FU issued
system.cpu0.iq.FU_type_0::SimdCmp                   0      0.00%     55.86% # Type of FU issued
system.cpu0.iq.FU_type_0::SimdCvt                   0      0.00%     55.86% # Type of FU issued
system.cpu0.iq.FU_type_0::SimdMisc                  0      0.00%     55.86% # Type of FU issued
system.cpu0.iq.FU_type_0::SimdMult                  0      0.00%     55.86% # Type of FU issued
system.cpu0.iq.FU_type_0::SimdMultAcc               0      0.00%     55.86% # Type of FU issued
system.cpu0.iq.FU_type_0::SimdShift                 0      0.00%     55.86% # Type of FU issued
system.cpu0.iq.FU_type_0::SimdShiftAcc              0      0.00%     55.86% # Type of FU issued
system.cpu0.iq.FU_type_0::SimdDiv                   0      0.00%     55.86% # Type of FU issued
system.cpu0.iq.FU_type_0::SimdSqrt                  0      0.00%     55.86% # Type of FU issued
system.cpu0.iq.FU_type_0::SimdFloatAdd              0      0.00%     55.86% # Type of FU issued
system.cpu0.iq.FU_type_0::SimdFloatAlu              0      0.00%     55.86% # Type of FU issued
system.cpu0.iq.FU_type_0::SimdFloatCmp              0      0.00%     55.86% # Type of FU issued
system.cpu0.iq.FU_type_0::SimdFloatCvt              0      0.00%     55.86% # Type of FU issued
system.cpu0.iq.FU_type_0::SimdFloatDiv              0      0.00%     55.86% # Type of FU issued
system.cpu0.iq.FU_type_0::SimdFloatMisc             0      0.00%     55.86% # Type of FU issued
system.cpu0.iq.FU_type_0::SimdFloatMult             0      0.00%     55.86% # Type of FU issued
system.cpu0.iq.FU_type_0::SimdFloatMultAcc            0      0.00%     55.86% # Type of FU issued
system.cpu0.iq.FU_type_0::SimdFloatSqrt             0      0.00%     55.86% # Type of FU issued
system.cpu0.iq.FU_type_0::SimdReduceAdd             0      0.00%     55.86% # Type of FU issued
system.cpu0.iq.FU_type_0::SimdReduceAlu             0      0.00%     55.86% # Type of FU issued
system.cpu0.iq.FU_type_0::SimdReduceCmp             0      0.00%     55.86% # Type of FU issued
system.cpu0.iq.FU_type_0::SimdFloatReduceAdd            0      0.00%     55.86% # Type of FU issued
system.cpu0.iq.FU_type_0::SimdFloatReduceCmp            0      0.00%     55.86% # Type of FU issued
system.cpu0.iq.FU_type_0::SimdAes                   0      0.00%     55.86% # Type of FU issued
system.cpu0.iq.FU_type_0::SimdAesMix                0      0.00%     55.86% # Type of FU issued
system.cpu0.iq.FU_type_0::SimdSha1Hash              0      0.00%     55.86% # Type of FU issued
system.cpu0.iq.FU_type_0::SimdSha1Hash2             0      0.00%     55.86% # Type of FU issued
system.cpu0.iq.FU_type_0::SimdSha256Hash            0      0.00%     55.86% # Type of FU issued
system.cpu0.iq.FU_type_0::SimdSha256Hash2            0      0.00%     55.86% # Type of FU issued
system.cpu0.iq.FU_type_0::SimdShaSigma2             0      0.00%     55.86% # Type of FU issued
system.cpu0.iq.FU_type_0::SimdShaSigma3             0      0.00%     55.86% # Type of FU issued
system.cpu0.iq.FU_type_0::SimdPredAlu               0      0.00%     55.86% # Type of FU issued
system.cpu0.iq.FU_type_0::MemRead           766465276     32.58%     88.44% # Type of FU issued
system.cpu0.iq.FU_type_0::MemWrite          271996025     11.56%    100.00% # Type of FU issued
system.cpu0.iq.FU_type_0::FloatMemRead             11      0.00%    100.00% # Type of FU issued
system.cpu0.iq.FU_type_0::FloatMemWrite            20      0.00%    100.00% # Type of FU issued
system.cpu0.iq.FU_type_0::IprAccess                 0      0.00%    100.00% # Type of FU issued
system.cpu0.iq.FU_type_0::InstPrefetch              0      0.00%    100.00% # Type of FU issued
system.cpu0.iq.FU_type_0::total            2352433734                       # Type of FU issued
system.cpu0.iq.fp_alu_accesses                     57                       # Number of floating point alu accesses
system.cpu0.iq.fp_inst_queue_reads                110                       # Number of floating instruction queue reads
system.cpu0.iq.fp_inst_queue_wakeup_accesses           51                       # Number of floating instruction queue wakeup accesses
system.cpu0.iq.fp_inst_queue_writes               128                       # Number of floating instruction queue writes
system.cpu0.iq.fu_busy_cnt                    4744573                       # FU busy when requested
system.cpu0.iq.fu_busy_rate                  0.002017                       # FU busy rate (busy events/executed inst)
system.cpu0.iq.fu_full::No_OpClass                  0      0.00%      0.00% # attempts to use FU when none available
system.cpu0.iq.fu_full::IntAlu                 753628     15.88%     15.88% # attempts to use FU when none available
system.cpu0.iq.fu_full::IntMult                    20      0.00%     15.88% # attempts to use FU when none available
system.cpu0.iq.fu_full::IntDiv                      0      0.00%     15.88% # attempts to use FU when none available
system.cpu0.iq.fu_full::FloatAdd                    0      0.00%     15.88% # attempts to use FU when none available
system.cpu0.iq.fu_full::FloatCmp                    0      0.00%     15.88% # attempts to use FU when none available
system.cpu0.iq.fu_full::FloatCvt                    0      0.00%     15.88% # attempts to use FU when none available
system.cpu0.iq.fu_full::FloatMult                   0      0.00%     15.88% # attempts to use FU when none available
system.cpu0.iq.fu_full::FloatMultAcc                0      0.00%     15.88% # attempts to use FU when none available
system.cpu0.iq.fu_full::FloatDiv                    0      0.00%     15.88% # attempts to use FU when none available
system.cpu0.iq.fu_full::FloatMisc                   0      0.00%     15.88% # attempts to use FU when none available
system.cpu0.iq.fu_full::FloatSqrt                   0      0.00%     15.88% # attempts to use FU when none available
system.cpu0.iq.fu_full::SimdAdd                     0      0.00%     15.88% # attempts to use FU when none available
system.cpu0.iq.fu_full::SimdAddAcc                  0      0.00%     15.88% # attempts to use FU when none available
system.cpu0.iq.fu_full::SimdAlu                     0      0.00%     15.88% # attempts to use FU when none available
system.cpu0.iq.fu_full::SimdCmp                     0      0.00%     15.88% # attempts to use FU when none available
system.cpu0.iq.fu_full::SimdCvt                     0      0.00%     15.88% # attempts to use FU when none available
system.cpu0.iq.fu_full::SimdMisc                    0      0.00%     15.88% # attempts to use FU when none available
system.cpu0.iq.fu_full::SimdMult                    0      0.00%     15.88% # attempts to use FU when none available
system.cpu0.iq.fu_full::SimdMultAcc                 0      0.00%     15.88% # attempts to use FU when none available
system.cpu0.iq.fu_full::SimdShift                   0      0.00%     15.88% # attempts to use FU when none available
system.cpu0.iq.fu_full::SimdShiftAcc                0      0.00%     15.88% # attempts to use FU when none available
system.cpu0.iq.fu_full::SimdDiv                     0      0.00%     15.88% # attempts to use FU when none available
system.cpu0.iq.fu_full::SimdSqrt                    0      0.00%     15.88% # attempts to use FU when none available
system.cpu0.iq.fu_full::SimdFloatAdd                0      0.00%     15.88% # attempts to use FU when none available
system.cpu0.iq.fu_full::SimdFloatAlu                0      0.00%     15.88% # attempts to use FU when none available
system.cpu0.iq.fu_full::SimdFloatCmp                0      0.00%     15.88% # attempts to use FU when none available
system.cpu0.iq.fu_full::SimdFloatCvt                0      0.00%     15.88% # attempts to use FU when none available
system.cpu0.iq.fu_full::SimdFloatDiv                0      0.00%     15.88% # attempts to use FU when none available
system.cpu0.iq.fu_full::SimdFloatMisc               0      0.00%     15.88% # attempts to use FU when none available
system.cpu0.iq.fu_full::SimdFloatMult               0      0.00%     15.88% # attempts to use FU when none available
system.cpu0.iq.fu_full::SimdFloatMultAcc            0      0.00%     15.88% # attempts to use FU when none available
system.cpu0.iq.fu_full::SimdFloatSqrt               0      0.00%     15.88% # attempts to use FU when none available
system.cpu0.iq.fu_full::SimdReduceAdd               0      0.00%     15.88% # attempts to use FU when none available
system.cpu0.iq.fu_full::SimdReduceAlu               0      0.00%     15.88% # attempts to use FU when none available
system.cpu0.iq.fu_full::SimdReduceCmp               0      0.00%     15.88% # attempts to use FU when none available
system.cpu0.iq.fu_full::SimdFloatReduceAdd            0      0.00%     15.88% # attempts to use FU when none available
system.cpu0.iq.fu_full::SimdFloatReduceCmp            0      0.00%     15.88% # attempts to use FU when none available
system.cpu0.iq.fu_full::SimdAes                     0      0.00%     15.88% # attempts to use FU when none available
system.cpu0.iq.fu_full::SimdAesMix                  0      0.00%     15.88% # attempts to use FU when none available
system.cpu0.iq.fu_full::SimdSha1Hash                0      0.00%     15.88% # attempts to use FU when none available
system.cpu0.iq.fu_full::SimdSha1Hash2               0      0.00%     15.88% # attempts to use FU when none available
system.cpu0.iq.fu_full::SimdSha256Hash              0      0.00%     15.88% # attempts to use FU when none available
system.cpu0.iq.fu_full::SimdSha256Hash2             0      0.00%     15.88% # attempts to use FU when none available
system.cpu0.iq.fu_full::SimdShaSigma2               0      0.00%     15.88% # attempts to use FU when none available
system.cpu0.iq.fu_full::SimdShaSigma3               0      0.00%     15.88% # attempts to use FU when none available
system.cpu0.iq.fu_full::SimdPredAlu                 0      0.00%     15.88% # attempts to use FU when none available
system.cpu0.iq.fu_full::MemRead               3368123     70.99%     86.87% # attempts to use FU when none available
system.cpu0.iq.fu_full::MemWrite               622798     13.13%    100.00% # attempts to use FU when none available
system.cpu0.iq.fu_full::FloatMemRead                0      0.00%    100.00% # attempts to use FU when none available
system.cpu0.iq.fu_full::FloatMemWrite               4      0.00%    100.00% # attempts to use FU when none available
system.cpu0.iq.fu_full::IprAccess                   0      0.00%    100.00% # attempts to use FU when none available
system.cpu0.iq.fu_full::InstPrefetch                0      0.00%    100.00% # attempts to use FU when none available
system.cpu0.iq.int_alu_accesses            2349566426                       # Number of integer alu accesses
system.cpu0.iq.int_inst_queue_reads        8459750725                       # Number of integer instruction queue reads
system.cpu0.iq.int_inst_queue_wakeup_accesses   2311699715                       # Number of integer instruction queue wakeup accesses
system.cpu0.iq.int_inst_queue_writes       2481657956                       # Number of integer instruction queue writes
system.cpu0.iq.iqInstsAdded                2343645145                       # Number of instructions added to the IQ (excludes non-spec)
system.cpu0.iq.iqInstsIssued               2352433734                       # Number of instructions issued
system.cpu0.iq.iqNonSpecInstsAdded           11419891                       # Number of non-speculative instructions added to the IQ
system.cpu0.iq.iqSquashedInstsExamined      126578378                       # Number of squashed instructions iterated over during squash; mainly for profiling
system.cpu0.iq.iqSquashedInstsIssued           300209                       # Number of squashed instructions issued
system.cpu0.iq.iqSquashedNonSpecRemoved           426                       # Number of squashed non-spec instructions that were removed
system.cpu0.iq.iqSquashedOperandsExamined     36950162                       # Number of squashed operands that are examined and possibly removed from graph
system.cpu0.iq.issued_per_cycle::samples   3749838585                       # Number of insts issued each cycle
system.cpu0.iq.issued_per_cycle::mean        0.627343                       # Number of insts issued each cycle
system.cpu0.iq.issued_per_cycle::stdev       0.853151                       # Number of insts issued each cycle
system.cpu0.iq.issued_per_cycle::underflows            0      0.00%      0.00% # Number of insts issued each cycle
system.cpu0.iq.issued_per_cycle::0         2106088378     56.16%     56.16% # Number of insts issued each cycle
system.cpu0.iq.issued_per_cycle::1         1112317086     29.66%     85.83% # Number of insts issued each cycle
system.cpu0.iq.issued_per_cycle::2          382243301     10.19%     96.02% # Number of insts issued each cycle
system.cpu0.iq.issued_per_cycle::3          128644068      3.43%     99.45% # Number of insts issued each cycle
system.cpu0.iq.issued_per_cycle::4           16493771      0.44%     99.89% # Number of insts issued each cycle
system.cpu0.iq.issued_per_cycle::5            1656751      0.04%     99.94% # Number of insts issued each cycle
system.cpu0.iq.issued_per_cycle::6            1653503      0.04%     99.98% # Number of insts issued each cycle
system.cpu0.iq.issued_per_cycle::7             415831      0.01%     99.99% # Number of insts issued each cycle
system.cpu0.iq.issued_per_cycle::8             325896      0.01%    100.00% # Number of insts issued each cycle
system.cpu0.iq.issued_per_cycle::overflows            0      0.00%    100.00% # Number of insts issued each cycle
system.cpu0.iq.issued_per_cycle::min_value            0                       # Number of insts issued each cycle
system.cpu0.iq.issued_per_cycle::max_value            8                       # Number of insts issued each cycle
system.cpu0.iq.issued_per_cycle::total     3749838585                       # Number of insts issued each cycle
system.cpu0.iq.rate                          0.581905                       # Inst issue rate
system.cpu0.iq.vec_alu_accesses                     0                       # Number of vector alu accesses
system.cpu0.iq.vec_inst_queue_reads                 0                       # Number of vector instruction queue reads
system.cpu0.iq.vec_inst_queue_wakeup_accesses            0                       # Number of vector instruction queue wakeup accesses
system.cpu0.iq.vec_inst_queue_writes                0                       # Number of vector instruction queue writes
system.cpu0.itb.accesses                            0                       # DTB accesses
system.cpu0.itb.hits                                0                       # DTB hits
system.cpu0.itb.misses                              0                       # DTB misses
system.cpu0.itb.read_accesses                       0                       # DTB read accesses
system.cpu0.itb.read_hits                           0                       # DTB read hits
system.cpu0.itb.read_misses                         0                       # DTB read misses
system.cpu0.itb.write_accesses                      0                       # DTB write accesses
system.cpu0.itb.write_hits                          0                       # DTB write hits
system.cpu0.itb.write_misses                        0                       # DTB write misses
system.cpu0.memDep0.conflictingLoads         35659308                       # Number of conflicting loads.
system.cpu0.memDep0.conflictingStores         8240642                       # Number of conflicting stores.
system.cpu0.memDep0.insertedLoads           756629643                       # Number of loads inserted to the mem dependence unit.
system.cpu0.memDep0.insertedStores          277138733                       # Number of stores inserted to the mem dependence unit.
system.cpu0.misc_regfile_reads                   2889                       # number of misc regfile reads
system.cpu0.misc_regfile_writes                    22                       # number of misc regfile writes
system.cpu0.numCycles                      4042643589                       # number of cpu cycles simulated
system.cpu0.numWorkItemsCompleted                   0                       # number of work items this cpu completed
system.cpu0.numWorkItemsStarted                     0                       # number of work items this cpu started
system.cpu0.quiesceCycles                     8690121                       # Total number of cycles that CPU has spent quiesced or waiting for an interrupt
system.cpu0.rename.BlockCycles              645336968                       # Number of cycles rename is blocking
system.cpu0.rename.CommittedMaps           1421256306                       # Number of HB maps that are committed
system.cpu0.rename.IQFullEvents              25664728                       # Number of times rename has blocked due to IQ full
system.cpu0.rename.IdleCycles              1365907835                       # Number of cycles rename is idle
system.cpu0.rename.LQFullEvents              25900444                       # Number of times rename has blocked due to LQ full
system.cpu0.rename.ROBFullEvents               101900                       # Number of times rename has blocked due to ROB full
system.cpu0.rename.RenameLookups           2906383024                       # Number of register rename lookups that rename has made
system.cpu0.rename.RenamedInsts            2383585457                       # Number of instructions processed by rename
system.cpu0.rename.RenamedOperands         1545543557                       # Number of destination operands rename has renamed
system.cpu0.rename.RunCycles               1629337574                       # Number of cycles rename is running
system.cpu0.rename.SQFullEvents              39114145                       # Number of times rename has blocked due to SQ full
system.cpu0.rename.SquashCycles              17746866                       # Number of cycles rename is squashing
system.cpu0.rename.UnblockCycles             91290663                       # Number of cycles rename is unblocking
system.cpu0.rename.UndoneMaps               124287247                       # Number of HB maps that are undone due to squashing
system.cpu0.rename.fp_rename_lookups               44                       # Number of floating rename lookups
system.cpu0.rename.int_rename_lookups      2906382980                       # Number of integer rename lookups
system.cpu0.rename.serializeStallCycles        218679                       # count of cycles rename stalled for serializing inst
system.cpu0.rename.serializingInsts              8822                       # count of serializing insts renamed
system.cpu0.rename.skidInsts                 54623383                       # count of insts added to the skid buffer
system.cpu0.rename.tempSerializingInsts          8807                       # count of temporary serializing insts renamed
system.cpu0.rob.rob_reads                  6016803275                       # The number of ROB reads
system.cpu0.rob.rob_writes                 4739242777                       # The number of ROB writes
system.cpu0.timesIdled                       42332411                       # Number of times that the entire CPU went into an idle state and unscheduled itself
system.cpu0.workload.numSyscalls                 2856                       # Number of system calls
system.cpu1.branchPred.BTBCorrect                   0                       # Number of correct BTB predictions (this stat may not work properly.
system.cpu1.branchPred.BTBHitPct            93.658747                       # BTB Hit Percentage
system.cpu1.branchPred.BTBHits               17803062                       # Number of BTB hits
system.cpu1.branchPred.BTBLookups            19008435                       # Number of BTB lookups
system.cpu1.branchPred.RASInCorrect                 0                       # Number of incorrect RAS predictions.
system.cpu1.branchPred.condIncorrect          1790688                       # Number of conditional branches incorrect
system.cpu1.branchPred.condPredicted         32153627                       # Number of conditional branches predicted
system.cpu1.branchPred.indirectHits            924459                       # Number of indirect target hits.
system.cpu1.branchPred.indirectLookups         937611                       # Number of indirect predictor lookups.
system.cpu1.branchPred.indirectMisses           13152                       # Number of indirect misses.
system.cpu1.branchPred.lookups               35387959                       # Number of BP lookups
system.cpu1.branchPred.usedRAS                      0                       # Number of times the RAS was used to get a target.
system.cpu1.branchPredindirectMispredicted        47662                       # Number of mispredicted indirect branches.
system.cpu1.commit.amos                       3801576                       # Number of atomic instructions committed
system.cpu1.commit.branchMispredicts          1388396                       # The number of times a branch was mispredicted
system.cpu1.commit.branches                  29517019                       # Number of branches committed
system.cpu1.commit.bw_lim_events              2914116                       # number cycles where commit BW limit reached
system.cpu1.commit.commitNonSpecStalls       11405397                       # The number of times commit has been forced to stall to communicate backwards
system.cpu1.commit.commitSquashedInsts       13880102                       # The number of squashed insts skipped by commit
system.cpu1.commit.committedInsts           130066168                       # Number of instructions committed
system.cpu1.commit.committedOps             133867920                       # Number of ops (including micro ops) committed
system.cpu1.commit.committed_per_cycle::samples    721696550                       # Number of insts commited each cycle
system.cpu1.commit.committed_per_cycle::mean     0.185491                       # Number of insts commited each cycle
system.cpu1.commit.committed_per_cycle::stdev     0.841183                       # Number of insts commited each cycle
system.cpu1.commit.committed_per_cycle::underflows            0      0.00%      0.00% # Number of insts commited each cycle
system.cpu1.commit.committed_per_cycle::0    665437940     92.20%     92.20% # Number of insts commited each cycle
system.cpu1.commit.committed_per_cycle::1     27987919      3.88%     96.08% # Number of insts commited each cycle
system.cpu1.commit.committed_per_cycle::2      9578557      1.33%     97.41% # Number of insts commited each cycle
system.cpu1.commit.committed_per_cycle::3      8902987      1.23%     98.64% # Number of insts commited each cycle
system.cpu1.commit.committed_per_cycle::4      2082679      0.29%     98.93% # Number of insts commited each cycle
system.cpu1.commit.committed_per_cycle::5       852761      0.12%     99.05% # Number of insts commited each cycle
system.cpu1.commit.committed_per_cycle::6      3470660      0.48%     99.53% # Number of insts commited each cycle
system.cpu1.commit.committed_per_cycle::7       468931      0.06%     99.60% # Number of insts commited each cycle
system.cpu1.commit.committed_per_cycle::8      2914116      0.40%    100.00% # Number of insts commited each cycle
system.cpu1.commit.committed_per_cycle::overflows            0      0.00%    100.00% # Number of insts commited each cycle
system.cpu1.commit.committed_per_cycle::min_value            0                       # Number of insts commited each cycle
system.cpu1.commit.committed_per_cycle::max_value            8                       # Number of insts commited each cycle
system.cpu1.commit.committed_per_cycle::total    721696550                       # Number of insts commited each cycle
system.cpu1.commit.fp_insts                        12                       # Number of committed floating point instructions.
system.cpu1.commit.function_calls             1457099                       # Number of function calls committed.
system.cpu1.commit.int_insts                125272150                       # Number of committed integer instructions.
system.cpu1.commit.loads                     36889976                       # Number of loads committed
system.cpu1.commit.membars                    7603274                       # Number of memory barriers committed
system.cpu1.commit.op_class_0::No_OpClass      7603274      5.68%      5.68% # Class of committed instruction
system.cpu1.commit.op_class_0::IntAlu        77450622     57.86%     63.54% # Class of committed instruction
system.cpu1.commit.op_class_0::IntMult             44      0.00%     63.54% # Class of committed instruction
system.cpu1.commit.op_class_0::IntDiv              88      0.00%     63.54% # Class of committed instruction
system.cpu1.commit.op_class_0::FloatAdd             0      0.00%     63.54% # Class of committed instruction
system.cpu1.commit.op_class_0::FloatCmp             0      0.00%     63.54% # Class of committed instruction
system.cpu1.commit.op_class_0::FloatCvt             0      0.00%     63.54% # Class of committed instruction
system.cpu1.commit.op_class_0::FloatMult            0      0.00%     63.54% # Class of committed instruction
system.cpu1.commit.op_class_0::FloatMultAcc            0      0.00%     63.54% # Class of committed instruction
system.cpu1.commit.op_class_0::FloatDiv             0      0.00%     63.54% # Class of committed instruction
system.cpu1.commit.op_class_0::FloatMisc            0      0.00%     63.54% # Class of committed instruction
system.cpu1.commit.op_class_0::FloatSqrt            0      0.00%     63.54% # Class of committed instruction
system.cpu1.commit.op_class_0::SimdAdd              0      0.00%     63.54% # Class of committed instruction
system.cpu1.commit.op_class_0::SimdAddAcc            0      0.00%     63.54% # Class of committed instruction
system.cpu1.commit.op_class_0::SimdAlu              0      0.00%     63.54% # Class of committed instruction
system.cpu1.commit.op_class_0::SimdCmp              0      0.00%     63.54% # Class of committed instruction
system.cpu1.commit.op_class_0::SimdCvt              0      0.00%     63.54% # Class of committed instruction
system.cpu1.commit.op_class_0::SimdMisc             0      0.00%     63.54% # Class of committed instruction
system.cpu1.commit.op_class_0::SimdMult             0      0.00%     63.54% # Class of committed instruction
system.cpu1.commit.op_class_0::SimdMultAcc            0      0.00%     63.54% # Class of committed instruction
system.cpu1.commit.op_class_0::SimdShift            0      0.00%     63.54% # Class of committed instruction
system.cpu1.commit.op_class_0::SimdShiftAcc            0      0.00%     63.54% # Class of committed instruction
system.cpu1.commit.op_class_0::SimdDiv              0      0.00%     63.54% # Class of committed instruction
system.cpu1.commit.op_class_0::SimdSqrt             0      0.00%     63.54% # Class of committed instruction
system.cpu1.commit.op_class_0::SimdFloatAdd            0      0.00%     63.54% # Class of committed instruction
system.cpu1.commit.op_class_0::SimdFloatAlu            0      0.00%     63.54% # Class of committed instruction
system.cpu1.commit.op_class_0::SimdFloatCmp            0      0.00%     63.54% # Class of committed instruction
system.cpu1.commit.op_class_0::SimdFloatCvt            0      0.00%     63.54% # Class of committed instruction
system.cpu1.commit.op_class_0::SimdFloatDiv            0      0.00%     63.54% # Class of committed instruction
system.cpu1.commit.op_class_0::SimdFloatMisc            0      0.00%     63.54% # Class of committed instruction
system.cpu1.commit.op_class_0::SimdFloatMult            0      0.00%     63.54% # Class of committed instruction
system.cpu1.commit.op_class_0::SimdFloatMultAcc            0      0.00%     63.54% # Class of committed instruction
system.cpu1.commit.op_class_0::SimdFloatSqrt            0      0.00%     63.54% # Class of committed instruction
system.cpu1.commit.op_class_0::SimdReduceAdd            0      0.00%     63.54% # Class of committed instruction
system.cpu1.commit.op_class_0::SimdReduceAlu            0      0.00%     63.54% # Class of committed instruction
system.cpu1.commit.op_class_0::SimdReduceCmp            0      0.00%     63.54% # Class of committed instruction
system.cpu1.commit.op_class_0::SimdFloatReduceAdd            0      0.00%     63.54% # Class of committed instruction
system.cpu1.commit.op_class_0::SimdFloatReduceCmp            0      0.00%     63.54% # Class of committed instruction
system.cpu1.commit.op_class_0::SimdAes              0      0.00%     63.54% # Class of committed instruction
system.cpu1.commit.op_class_0::SimdAesMix            0      0.00%     63.54% # Class of committed instruction
system.cpu1.commit.op_class_0::SimdSha1Hash            0      0.00%     63.54% # Class of committed instruction
system.cpu1.commit.op_class_0::SimdSha1Hash2            0      0.00%     63.54% # Class of committed instruction
system.cpu1.commit.op_class_0::SimdSha256Hash            0      0.00%     63.54% # Class of committed instruction
system.cpu1.commit.op_class_0::SimdSha256Hash2            0      0.00%     63.54% # Class of committed instruction
system.cpu1.commit.op_class_0::SimdShaSigma2            0      0.00%     63.54% # Class of committed instruction
system.cpu1.commit.op_class_0::SimdShaSigma3            0      0.00%     63.54% # Class of committed instruction
system.cpu1.commit.op_class_0::SimdPredAlu            0      0.00%     63.54% # Class of committed instruction
system.cpu1.commit.op_class_0::MemRead       40691552     30.40%     93.93% # Class of committed instruction
system.cpu1.commit.op_class_0::MemWrite       8122328      6.07%    100.00% # Class of committed instruction
system.cpu1.commit.op_class_0::FloatMemRead            0      0.00%    100.00% # Class of committed instruction
system.cpu1.commit.op_class_0::FloatMemWrite           12      0.00%    100.00% # Class of committed instruction
system.cpu1.commit.op_class_0::IprAccess            0      0.00%    100.00% # Class of committed instruction
system.cpu1.commit.op_class_0::InstPrefetch            0      0.00%    100.00% # Class of committed instruction
system.cpu1.commit.op_class_0::total        133867920                       # Class of committed instruction
system.cpu1.commit.refs                      48813892                       # Number of memory references committed
system.cpu1.commit.swp_count                        0                       # Number of s/w prefetches committed
system.cpu1.commit.vec_insts                        0                       # Number of committed Vector instructions.
system.cpu1.committedInsts                  130066168                       # Number of Instructions Simulated
system.cpu1.committedOps                    133867920                       # Number of Ops (including micro ops) Simulated
system.cpu1.cpi                              5.588463                       # CPI: Cycles Per Instruction
system.cpu1.cpi_total                        5.588463                       # CPI: Total CPI of All Threads
system.cpu1.decode.BlockedCycles            639571237                       # Number of cycles decode is blocked
system.cpu1.decode.BranchMispred               418918                       # Number of times decode detected a branch misprediction
system.cpu1.decode.BranchResolved            17047267                       # Number of times decode resolved a branch
system.cpu1.decode.DecodedInsts             153460476                       # Number of instructions handled by decode
system.cpu1.decode.IdleCycles                23053256                       # Number of cycles decode is idle
system.cpu1.decode.RunCycles                 51760207                       # Number of cycles decode is running
system.cpu1.decode.SquashCycles               1389665                       # Number of cycles decode is squashing
system.cpu1.decode.SquashedInsts              1177077                       # Number of squashed instructions handled by decode
system.cpu1.decode.UnblockCycles              8629102                       # Number of cycles decode is unblocking
system.cpu1.dtb.accesses                            0                       # DTB accesses
system.cpu1.dtb.hits                                0                       # DTB hits
system.cpu1.dtb.misses                              0                       # DTB misses
system.cpu1.dtb.read_accesses                       0                       # DTB read accesses
system.cpu1.dtb.read_hits                           0                       # DTB read hits
system.cpu1.dtb.read_misses                         0                       # DTB read misses
system.cpu1.dtb.write_accesses                      0                       # DTB write accesses
system.cpu1.dtb.write_hits                          0                       # DTB write hits
system.cpu1.dtb.write_misses                        0                       # DTB write misses
system.cpu1.fetch.Branches                   35387959                       # Number of branches that fetch encountered
system.cpu1.fetch.CacheLines                 23177242                       # Number of cache lines fetched
system.cpu1.fetch.Cycles                    697486863                       # Number of cycles fetch has run and was not squashing or blocked
system.cpu1.fetch.IcacheSquashes               351671                       # Number of outstanding Icache misses that were squashed
system.cpu1.fetch.Insts                     155417350                       # Number of instructions fetch has processed
system.cpu1.fetch.MiscStallCycles                   1                       # Number of cycles fetch has spent waiting on interrupts, or bad addresses, or out of MSHRs
system.cpu1.fetch.SquashCycles                3583914                       # Number of cycles fetch has spent squashing
system.cpu1.fetch.branchRate                 0.048685                       # Number of branch fetches per cycle
system.cpu1.fetch.icacheStallCycles          25124646                       # Number of cycles fetch is stalled on an Icache miss
system.cpu1.fetch.predictedBranches          18727521                       # Number of branches that fetch has predicted taken
system.cpu1.fetch.rate                       0.213817                       # Number of inst fetches per cycle
system.cpu1.fetch.rateDist::samples         724403467                       # Number of instructions fetched each cycle (Total)
system.cpu1.fetch.rateDist::mean             0.219795                       # Number of instructions fetched each cycle (Total)
system.cpu1.fetch.rateDist::stdev            0.660249                       # Number of instructions fetched each cycle (Total)
system.cpu1.fetch.rateDist::underflows              0      0.00%      0.00% # Number of instructions fetched each cycle (Total)
system.cpu1.fetch.rateDist::0               627258984     86.59%     86.59% # Number of instructions fetched each cycle (Total)
system.cpu1.fetch.rateDist::1                58083114      8.02%     94.61% # Number of instructions fetched each cycle (Total)
system.cpu1.fetch.rateDist::2                23434892      3.24%     97.84% # Number of instructions fetched each cycle (Total)
system.cpu1.fetch.rateDist::3                10680026      1.47%     99.32% # Number of instructions fetched each cycle (Total)
system.cpu1.fetch.rateDist::4                 3367265      0.46%     99.78% # Number of instructions fetched each cycle (Total)
system.cpu1.fetch.rateDist::5                  718056      0.10%     99.88% # Number of instructions fetched each cycle (Total)
system.cpu1.fetch.rateDist::6                  860683      0.12%    100.00% # Number of instructions fetched each cycle (Total)
system.cpu1.fetch.rateDist::7                      13      0.00%    100.00% # Number of instructions fetched each cycle (Total)
system.cpu1.fetch.rateDist::8                     434      0.00%    100.00% # Number of instructions fetched each cycle (Total)
system.cpu1.fetch.rateDist::overflows               0      0.00%    100.00% # Number of instructions fetched each cycle (Total)
system.cpu1.fetch.rateDist::min_value               0                       # Number of instructions fetched each cycle (Total)
system.cpu1.fetch.rateDist::max_value               8                       # Number of instructions fetched each cycle (Total)
system.cpu1.fetch.rateDist::total           724403467                       # Number of instructions fetched each cycle (Total)
system.cpu1.fp_regfile_reads                       12                       # number of floating regfile reads
system.cpu1.idleCycles                        2466500                       # Total number of cycles that the CPU has spent unscheduled due to idling
system.cpu1.iew.branchMispredicts             1496502                       # Number of branch mispredicts detected at execute
system.cpu1.iew.exec_branches                31481306                       # Number of branches executed
system.cpu1.iew.exec_nop                            0                       # number of nop insts executed
system.cpu1.iew.exec_rate                    0.197694                       # Inst execution rate
system.cpu1.iew.exec_refs                    51981522                       # number of memory reference insts executed
system.cpu1.iew.exec_stores                  12364511                       # Number of stores executed
system.cpu1.iew.exec_swp                            0                       # number of swp insts executed
system.cpu1.iew.iewBlockCycles              546575248                       # Number of cycles IEW is blocking
system.cpu1.iew.iewDispLoadInsts             40073245                       # Number of dispatched load instructions
system.cpu1.iew.iewDispNonSpecInsts           3802292                       # Number of dispatched non-speculative instructions
system.cpu1.iew.iewDispSquashedInsts          1471671                       # Number of squashed instructions skipped by dispatch
system.cpu1.iew.iewDispStoreInsts            12766588                       # Number of dispatched store instructions
system.cpu1.iew.iewDispatchedInsts          147732002                       # Number of instructions dispatched to IQ
system.cpu1.iew.iewExecLoadInsts             39617011                       # Number of load instructions executed
system.cpu1.iew.iewExecSquashedInsts          1281198                       # Number of squashed instructions skipped in execute
system.cpu1.iew.iewExecutedInsts            143698084                       # Number of executed instructions
system.cpu1.iew.iewIQFullEvents               2813360                       # Number of times the IQ has become full, causing a stall
system.cpu1.iew.iewIdleCycles                       0                       # Number of cycles IEW is idle
system.cpu1.iew.iewLSQFullEvents              5687108                       # Number of times the LSQ has become full, causing a stall
system.cpu1.iew.iewSquashCycles               1389665                       # Number of cycles IEW is squashing
system.cpu1.iew.iewUnblockCycles             13278955                       # Number of cycles IEW is unblocking
system.cpu1.iew.lsq.thread0.blockedLoads            0                       # Number of blocked loads due to partial load-store forwarding
system.cpu1.iew.lsq.thread0.cacheBlocked        58793                       # Number of times an access to memory failed due to the cache being blocked
system.cpu1.iew.lsq.thread0.forwLoads         1113506                       # Number of loads that had data forwarded from stores
system.cpu1.iew.lsq.thread0.ignoredResponses        40494                       # Number of memory responses ignored because the instruction is squashed
system.cpu1.iew.lsq.thread0.invAddrLoads            0                       # Number of loads ignored due to an invalid address
system.cpu1.iew.lsq.thread0.invAddrSwpfs            0                       # Number of software prefetches ignored due to an invalid address
system.cpu1.iew.lsq.thread0.memOrderViolation         1525                       # Number of memory ordering violations
system.cpu1.iew.lsq.thread0.rescheduledLoads         4985                       # Number of loads that were rescheduled
system.cpu1.iew.lsq.thread0.squashedLoads      3183269                       # Number of loads squashed
system.cpu1.iew.lsq.thread0.squashedStores       842672                       # Number of stores squashed
system.cpu1.iew.memOrderViolationEvents          1525                       # Number of memory order violations
system.cpu1.iew.predictedNotTakenIncorrect       508275                       # Number of branches that were predicted not taken incorrectly
system.cpu1.iew.predictedTakenIncorrect        988227                       # Number of branches that were predicted taken incorrectly
system.cpu1.iew.wb_consumers                 82242033                       # num instructions consuming a value
system.cpu1.iew.wb_count                    142635239                       # cumulative count of insts written-back
system.cpu1.iew.wb_fanout                    0.842805                       # average fanout of values written-back
system.cpu1.iew.wb_producers                 69314016                       # num instructions producing a value
system.cpu1.iew.wb_rate                      0.196232                       # insts written-back per cycle
system.cpu1.iew.wb_sent                     142690168                       # cumulative count of insts sent to commit
system.cpu1.int_regfile_reads               178588855                       # number of integer regfile reads
system.cpu1.int_regfile_writes               95813618                       # number of integer regfile writes
system.cpu1.ipc                              0.178940                       # IPC: Instructions Per Cycle
system.cpu1.ipc_total                        0.178940                       # IPC: Total IPC of All Threads
system.cpu1.iq.FU_type_0::No_OpClass          7603373      5.24%      5.24% # Type of FU issued
system.cpu1.iq.FU_type_0::IntAlu             85041746     58.66%     63.90% # Type of FU issued
system.cpu1.iq.FU_type_0::IntMult                  47      0.00%     63.90% # Type of FU issued
system.cpu1.iq.FU_type_0::IntDiv                   90      0.00%     63.90% # Type of FU issued
system.cpu1.iq.FU_type_0::FloatAdd                  0      0.00%     63.90% # Type of FU issued
system.cpu1.iq.FU_type_0::FloatCmp                  0      0.00%     63.90% # Type of FU issued
system.cpu1.iq.FU_type_0::FloatCvt                  0      0.00%     63.90% # Type of FU issued
system.cpu1.iq.FU_type_0::FloatMult                 0      0.00%     63.90% # Type of FU issued
system.cpu1.iq.FU_type_0::FloatMultAcc              0      0.00%     63.90% # Type of FU issued
system.cpu1.iq.FU_type_0::FloatDiv                  0      0.00%     63.90% # Type of FU issued
system.cpu1.iq.FU_type_0::FloatMisc                 0      0.00%     63.90% # Type of FU issued
system.cpu1.iq.FU_type_0::FloatSqrt                 0      0.00%     63.90% # Type of FU issued
system.cpu1.iq.FU_type_0::SimdAdd                   0      0.00%     63.90% # Type of FU issued
system.cpu1.iq.FU_type_0::SimdAddAcc                0      0.00%     63.90% # Type of FU issued
system.cpu1.iq.FU_type_0::SimdAlu                   0      0.00%     63.90% # Type of FU issued
system.cpu1.iq.FU_type_0::SimdCmp                   0      0.00%     63.90% # Type of FU issued
system.cpu1.iq.FU_type_0::SimdCvt                   0      0.00%     63.90% # Type of FU issued
system.cpu1.iq.FU_type_0::SimdMisc                  0      0.00%     63.90% # Type of FU issued
system.cpu1.iq.FU_type_0::SimdMult                  0      0.00%     63.90% # Type of FU issued
system.cpu1.iq.FU_type_0::SimdMultAcc               0      0.00%     63.90% # Type of FU issued
system.cpu1.iq.FU_type_0::SimdShift                 0      0.00%     63.90% # Type of FU issued
system.cpu1.iq.FU_type_0::SimdShiftAcc              0      0.00%     63.90% # Type of FU issued
system.cpu1.iq.FU_type_0::SimdDiv                   0      0.00%     63.90% # Type of FU issued
system.cpu1.iq.FU_type_0::SimdSqrt                  0      0.00%     63.90% # Type of FU issued
system.cpu1.iq.FU_type_0::SimdFloatAdd              0      0.00%     63.90% # Type of FU issued
system.cpu1.iq.FU_type_0::SimdFloatAlu              0      0.00%     63.90% # Type of FU issued
system.cpu1.iq.FU_type_0::SimdFloatCmp              0      0.00%     63.90% # Type of FU issued
system.cpu1.iq.FU_type_0::SimdFloatCvt              0      0.00%     63.90% # Type of FU issued
system.cpu1.iq.FU_type_0::SimdFloatDiv              0      0.00%     63.90% # Type of FU issued
system.cpu1.iq.FU_type_0::SimdFloatMisc             0      0.00%     63.90% # Type of FU issued
system.cpu1.iq.FU_type_0::SimdFloatMult             0      0.00%     63.90% # Type of FU issued
system.cpu1.iq.FU_type_0::SimdFloatMultAcc            0      0.00%     63.90% # Type of FU issued
system.cpu1.iq.FU_type_0::SimdFloatSqrt             0      0.00%     63.90% # Type of FU issued
system.cpu1.iq.FU_type_0::SimdReduceAdd             0      0.00%     63.90% # Type of FU issued
system.cpu1.iq.FU_type_0::SimdReduceAlu             0      0.00%     63.90% # Type of FU issued
system.cpu1.iq.FU_type_0::SimdReduceCmp             0      0.00%     63.90% # Type of FU issued
system.cpu1.iq.FU_type_0::SimdFloatReduceAdd            0      0.00%     63.90% # Type of FU issued
system.cpu1.iq.FU_type_0::SimdFloatReduceCmp            0      0.00%     63.90% # Type of FU issued
system.cpu1.iq.FU_type_0::SimdAes                   0      0.00%     63.90% # Type of FU issued
system.cpu1.iq.FU_type_0::SimdAesMix                0      0.00%     63.90% # Type of FU issued
system.cpu1.iq.FU_type_0::SimdSha1Hash              0      0.00%     63.90% # Type of FU issued
system.cpu1.iq.FU_type_0::SimdSha1Hash2             0      0.00%     63.90% # Type of FU issued
system.cpu1.iq.FU_type_0::SimdSha256Hash            0      0.00%     63.90% # Type of FU issued
system.cpu1.iq.FU_type_0::SimdSha256Hash2            0      0.00%     63.90% # Type of FU issued
system.cpu1.iq.FU_type_0::SimdShaSigma2             0      0.00%     63.90% # Type of FU issued
system.cpu1.iq.FU_type_0::SimdShaSigma3             0      0.00%     63.90% # Type of FU issued
system.cpu1.iq.FU_type_0::SimdPredAlu               0      0.00%     63.90% # Type of FU issued
system.cpu1.iq.FU_type_0::MemRead            43718717     30.16%     94.06% # Type of FU issued
system.cpu1.iq.FU_type_0::MemWrite            8615297      5.94%    100.00% # Type of FU issued
system.cpu1.iq.FU_type_0::FloatMemRead              0      0.00%    100.00% # Type of FU issued
system.cpu1.iq.FU_type_0::FloatMemWrite            12      0.00%    100.00% # Type of FU issued
system.cpu1.iq.FU_type_0::IprAccess                 0      0.00%    100.00% # Type of FU issued
system.cpu1.iq.FU_type_0::InstPrefetch              0      0.00%    100.00% # Type of FU issued
system.cpu1.iq.FU_type_0::total             144979282                       # Type of FU issued
system.cpu1.iq.fp_alu_accesses                     16                       # Number of floating point alu accesses
system.cpu1.iq.fp_inst_queue_reads                 28                       # Number of floating instruction queue reads
system.cpu1.iq.fp_inst_queue_wakeup_accesses           12                       # Number of floating instruction queue wakeup accesses
system.cpu1.iq.fp_inst_queue_writes                12                       # Number of floating instruction queue writes
system.cpu1.iq.fu_busy_cnt                    4036754                       # FU busy when requested
system.cpu1.iq.fu_busy_rate                  0.027844                       # FU busy rate (busy events/executed inst)
system.cpu1.iq.fu_full::No_OpClass                  0      0.00%      0.00% # attempts to use FU when none available
system.cpu1.iq.fu_full::IntAlu                 623553     15.45%     15.45% # attempts to use FU when none available
system.cpu1.iq.fu_full::IntMult                     0      0.00%     15.45% # attempts to use FU when none available
system.cpu1.iq.fu_full::IntDiv                      0      0.00%     15.45% # attempts to use FU when none available
system.cpu1.iq.fu_full::FloatAdd                    0      0.00%     15.45% # attempts to use FU when none available
system.cpu1.iq.fu_full::FloatCmp                    0      0.00%     15.45% # attempts to use FU when none available
system.cpu1.iq.fu_full::FloatCvt                    0      0.00%     15.45% # attempts to use FU when none available
system.cpu1.iq.fu_full::FloatMult                   0      0.00%     15.45% # attempts to use FU when none available
system.cpu1.iq.fu_full::FloatMultAcc                0      0.00%     15.45% # attempts to use FU when none available
system.cpu1.iq.fu_full::FloatDiv                    0      0.00%     15.45% # attempts to use FU when none available
system.cpu1.iq.fu_full::FloatMisc                   0      0.00%     15.45% # attempts to use FU when none available
system.cpu1.iq.fu_full::FloatSqrt                   0      0.00%     15.45% # attempts to use FU when none available
system.cpu1.iq.fu_full::SimdAdd                     0      0.00%     15.45% # attempts to use FU when none available
system.cpu1.iq.fu_full::SimdAddAcc                  0      0.00%     15.45% # attempts to use FU when none available
system.cpu1.iq.fu_full::SimdAlu                     0      0.00%     15.45% # attempts to use FU when none available
system.cpu1.iq.fu_full::SimdCmp                     0      0.00%     15.45% # attempts to use FU when none available
system.cpu1.iq.fu_full::SimdCvt                     0      0.00%     15.45% # attempts to use FU when none available
system.cpu1.iq.fu_full::SimdMisc                    0      0.00%     15.45% # attempts to use FU when none available
system.cpu1.iq.fu_full::SimdMult                    0      0.00%     15.45% # attempts to use FU when none available
system.cpu1.iq.fu_full::SimdMultAcc                 0      0.00%     15.45% # attempts to use FU when none available
system.cpu1.iq.fu_full::SimdShift                   0      0.00%     15.45% # attempts to use FU when none available
system.cpu1.iq.fu_full::SimdShiftAcc                0      0.00%     15.45% # attempts to use FU when none available
system.cpu1.iq.fu_full::SimdDiv                     0      0.00%     15.45% # attempts to use FU when none available
system.cpu1.iq.fu_full::SimdSqrt                    0      0.00%     15.45% # attempts to use FU when none available
system.cpu1.iq.fu_full::SimdFloatAdd                0      0.00%     15.45% # attempts to use FU when none available
system.cpu1.iq.fu_full::SimdFloatAlu                0      0.00%     15.45% # attempts to use FU when none available
system.cpu1.iq.fu_full::SimdFloatCmp                0      0.00%     15.45% # attempts to use FU when none available
system.cpu1.iq.fu_full::SimdFloatCvt                0      0.00%     15.45% # attempts to use FU when none available
system.cpu1.iq.fu_full::SimdFloatDiv                0      0.00%     15.45% # attempts to use FU when none available
system.cpu1.iq.fu_full::SimdFloatMisc               0      0.00%     15.45% # attempts to use FU when none available
system.cpu1.iq.fu_full::SimdFloatMult               0      0.00%     15.45% # attempts to use FU when none available
system.cpu1.iq.fu_full::SimdFloatMultAcc            0      0.00%     15.45% # attempts to use FU when none available
system.cpu1.iq.fu_full::SimdFloatSqrt               0      0.00%     15.45% # attempts to use FU when none available
system.cpu1.iq.fu_full::SimdReduceAdd               0      0.00%     15.45% # attempts to use FU when none available
system.cpu1.iq.fu_full::SimdReduceAlu               0      0.00%     15.45% # attempts to use FU when none available
system.cpu1.iq.fu_full::SimdReduceCmp               0      0.00%     15.45% # attempts to use FU when none available
system.cpu1.iq.fu_full::SimdFloatReduceAdd            0      0.00%     15.45% # attempts to use FU when none available
system.cpu1.iq.fu_full::SimdFloatReduceCmp            0      0.00%     15.45% # attempts to use FU when none available
system.cpu1.iq.fu_full::SimdAes                     0      0.00%     15.45% # attempts to use FU when none available
system.cpu1.iq.fu_full::SimdAesMix                  0      0.00%     15.45% # attempts to use FU when none available
system.cpu1.iq.fu_full::SimdSha1Hash                0      0.00%     15.45% # attempts to use FU when none available
system.cpu1.iq.fu_full::SimdSha1Hash2               0      0.00%     15.45% # attempts to use FU when none available
system.cpu1.iq.fu_full::SimdSha256Hash              0      0.00%     15.45% # attempts to use FU when none available
system.cpu1.iq.fu_full::SimdSha256Hash2             0      0.00%     15.45% # attempts to use FU when none available
system.cpu1.iq.fu_full::SimdShaSigma2               0      0.00%     15.45% # attempts to use FU when none available
system.cpu1.iq.fu_full::SimdShaSigma3               0      0.00%     15.45% # attempts to use FU when none available
system.cpu1.iq.fu_full::SimdPredAlu                 0      0.00%     15.45% # attempts to use FU when none available
system.cpu1.iq.fu_full::MemRead               3074200     76.16%     91.60% # attempts to use FU when none available
system.cpu1.iq.fu_full::MemWrite               338997      8.40%    100.00% # attempts to use FU when none available
[...]
system.cpu1.dcache.WriteReq_hits::.cpu1.data      3332971                       # number of WriteReq hits
system.cpu1.dcache.WriteReq_hits::total       3332971                       # number of WriteReq hits
system.cpu1.dcache.WriteReq_misses::.cpu1.data      1309207                       # number of WriteReq misses
system.cpu1.dcache.WriteReq_misses::total      1309207                       # number of WriteReq misses
system.cpu1.dcache.WriteReq_miss_latency::.cpu1.data 120989118446                       # number of WriteReq miss cycles
system.cpu1.dcache.WriteReq_miss_latency::total 120989118446                       # number of WriteReq miss cycles
system.cpu1.dcache.WriteReq_accesses::.cpu1.data      4642178                       # number of WriteReq accesses(hits+misses)
system.cpu1.dcache.WriteReq_accesses::total      4642178                       # number of WriteReq accesses(hits+misses)
system.cpu1.dcache.WriteReq_miss_rate::.cpu1.data     0.282024                       # miss rate for WriteReq accesses
system.cpu1.dcache.WriteReq_miss_rate::total     0.282024                       # miss rate for WriteReq accesses
system.cpu1.dcache.WriteReq_avg_miss_latency::.cpu1.data 92414.047928                       # average WriteReq miss latency
system.cpu1.dcache.WriteReq_avg_miss_latency::total 92414.047928                       # average WriteReq miss latency
system.cpu1.dcache.WriteReq_mshr_hits::.cpu1.data      1089072                       # number of WriteReq MSHR hits
system.cpu1.dcache.WriteReq_mshr_hits::total      1089072                       # number of WriteReq MSHR hits
system.cpu1.dcache.WriteReq_mshr_misses::.cpu1.data       220135                       # number of WriteReq MSHR misses
system.cpu1.dcache.WriteReq_mshr_misses::total       220135                       # number of WriteReq MSHR misses
system.cpu1.dcache.WriteReq_mshr_miss_latency::.cpu1.data  13344243756                       # number of WriteReq MSHR miss cycles
system.cpu1.dcache.WriteReq_mshr_miss_latency::total  13344243756                       # number of WriteReq MSHR miss cycles
system.cpu1.dcache.WriteReq_mshr_miss_rate::.cpu1.data     0.047421                       # mshr miss rate for WriteReq accesses
system.cpu1.dcache.WriteReq_mshr_miss_rate::total     0.047421                       # mshr miss rate for WriteReq accesses
system.cpu1.dcache.WriteReq_avg_mshr_miss_latency::.cpu1.data 60618.455748                       # average WriteReq mshr miss latency
system.cpu1.dcache.WriteReq_avg_mshr_miss_latency::total 60618.455748                       # average WriteReq mshr miss latency
system.cpu1.dcache.LoadLockedReq_hits::.cpu1.data       137715                       # number of LoadLockedReq hits
system.cpu1.dcache.LoadLockedReq_hits::total       137715                       # number of LoadLockedReq hits
system.cpu1.dcache.LoadLockedReq_misses::.cpu1.data          769                       # number of LoadLockedReq misses
system.cpu1.dcache.LoadLockedReq_misses::total          769                       # number of LoadLockedReq misses
system.cpu1.dcache.LoadLockedReq_miss_latency::.cpu1.data     44525000                       # number of LoadLockedReq miss cycles
system.cpu1.dcache.LoadLockedReq_miss_latency::total     44525000                       # number of LoadLockedReq miss cycles
system.cpu1.dcache.LoadLockedReq_accesses::.cpu1.data       138484                       # number of LoadLockedReq accesses(hits+misses)
system.cpu1.dcache.LoadLockedReq_accesses::total       138484                       # number of LoadLockedReq accesses(hits+misses)
system.cpu1.dcache.LoadLockedReq_miss_rate::.cpu1.data     0.005553                       # miss rate for LoadLockedReq accesses
system.cpu1.dcache.LoadLockedReq_miss_rate::total     0.005553                       # miss rate for LoadLockedReq accesses
system.cpu1.dcache.LoadLockedReq_avg_miss_latency::.cpu1.data 57899.869961                       # average LoadLockedReq miss latency
system.cpu1.dcache.LoadLockedReq_avg_miss_latency::total 57899.869961                       # average LoadLockedReq miss latency
system.cpu1.dcache.LoadLockedReq_mshr_hits::.cpu1.data          278                       # number of LoadLockedReq MSHR hits
system.cpu1.dcache.LoadLockedReq_mshr_hits::total          278                       # number of LoadLockedReq MSHR hits
system.cpu1.dcache.LoadLockedReq_mshr_misses::.cpu1.data          491                       # number of LoadLockedReq MSHR misses
system.cpu1.dcache.LoadLockedReq_mshr_misses::total          491                       # number of LoadLockedReq MSHR misses
system.cpu1.dcache.LoadLockedReq_mshr_miss_latency::.cpu1.data     24192000                       # number of LoadLockedReq MSHR miss cycles
system.cpu1.dcache.LoadLockedReq_mshr_miss_latency::total     24192000                       # number of LoadLockedReq MSHR miss cycles
system.cpu1.dcache.LoadLockedReq_mshr_miss_rate::.cpu1.data     0.003546                       # mshr miss rate for LoadLockedReq accesses
system.cpu1.dcache.LoadLockedReq_mshr_miss_rate::total     0.003546                       # mshr miss rate for LoadLockedReq accesses
system.cpu1.dcache.LoadLockedReq_avg_mshr_miss_latency::.cpu1.data 49270.875764                       # average LoadLockedReq mshr miss latency
system.cpu1.dcache.LoadLockedReq_avg_mshr_miss_latency::total 49270.875764                       # average LoadLockedReq mshr miss latency
system.cpu1.dcache.StoreCondReq_hits::.cpu1.data       136309                       # number of StoreCondReq hits
system.cpu1.dcache.StoreCondReq_hits::total       136309                       # number of StoreCondReq hits
system.cpu1.dcache.StoreCondReq_misses::.cpu1.data         1964                       # number of StoreCondReq misses
system.cpu1.dcache.StoreCondReq_misses::total         1964                       # number of StoreCondReq misses
system.cpu1.dcache.StoreCondReq_miss_latency::.cpu1.data     12967500                       # number of StoreCondReq miss cycles
system.cpu1.dcache.StoreCondReq_miss_latency::total     12967500                       # number of StoreCondReq miss cycles
system.cpu1.dcache.StoreCondReq_accesses::.cpu1.data       138273                       # number of StoreCondReq accesses(hits+misses)
system.cpu1.dcache.StoreCondReq_accesses::total       138273                       # number of StoreCondReq accesses(hits+misses)
system.cpu1.dcache.StoreCondReq_miss_rate::.cpu1.data     0.014204                       # miss rate for StoreCondReq accesses
system.cpu1.dcache.StoreCondReq_miss_rate::total     0.014204                       # miss rate for StoreCondReq accesses
system.cpu1.dcache.StoreCondReq_avg_miss_latency::.cpu1.data  6602.596741                       # average StoreCondReq miss latency
system.cpu1.dcache.StoreCondReq_avg_miss_latency::total  6602.596741                       # average StoreCondReq miss latency
system.cpu1.dcache.StoreCondReq_mshr_misses::.cpu1.data         1915                       # number of StoreCondReq MSHR misses
system.cpu1.dcache.StoreCondReq_mshr_misses::total         1915                       # number of StoreCondReq MSHR misses
system.cpu1.dcache.StoreCondReq_mshr_miss_latency::.cpu1.data     11060500                       # number of StoreCondReq MSHR miss cycles
system.cpu1.dcache.StoreCondReq_mshr_miss_latency::total     11060500                       # number of StoreCondReq MSHR miss cycles
system.cpu1.dcache.StoreCondReq_mshr_miss_rate::.cpu1.data     0.013849                       # mshr miss rate for StoreCondReq accesses
system.cpu1.dcache.StoreCondReq_mshr_miss_rate::total     0.013849                       # mshr miss rate for StoreCondReq accesses
system.cpu1.dcache.StoreCondReq_avg_mshr_miss_latency::.cpu1.data  5775.718016                       # average StoreCondReq mshr miss latency
system.cpu1.dcache.StoreCondReq_avg_mshr_miss_latency::total  5775.718016                       # average StoreCondReq mshr miss latency
system.cpu1.dcache.StoreCondFailReq_miss_latency::.cpu1.data       222500                       # number of StoreCondFailReq miss cycles
system.cpu1.dcache.StoreCondFailReq_miss_latency::total       222500                       # number of StoreCondFailReq miss cycles
system.cpu1.dcache.StoreCondFailReq_avg_miss_latency::.cpu1.data          inf                       # average StoreCondFailReq miss latency
system.cpu1.dcache.StoreCondFailReq_avg_miss_latency::total          inf                       # average StoreCondFailReq miss latency
system.cpu1.dcache.StoreCondFailReq_mshr_miss_latency::.cpu1.data       214500                       # number of StoreCondFailReq MSHR miss cycles
system.cpu1.dcache.StoreCondFailReq_mshr_miss_latency::total       214500                       # number of StoreCondFailReq MSHR miss cycles
system.cpu1.dcache.StoreCondFailReq_avg_mshr_miss_latency::.cpu1.data          inf                       # average StoreCondFailReq mshr miss latency
system.cpu1.dcache.StoreCondFailReq_avg_mshr_miss_latency::total          inf                       # average StoreCondFailReq mshr miss latency
system.cpu1.dcache.SwapReq_hits::.cpu1.data         1842                       # number of SwapReq hits
system.cpu1.dcache.SwapReq_hits::total           1842                       # number of SwapReq hits
system.cpu1.dcache.SwapReq_misses::.cpu1.data         7071                       # number of SwapReq misses
system.cpu1.dcache.SwapReq_misses::total         7071                       # number of SwapReq misses
system.cpu1.dcache.SwapReq_miss_latency::.cpu1.data    181769998                       # number of SwapReq miss cycles
system.cpu1.dcache.SwapReq_miss_latency::total    181769998                       # number of SwapReq miss cycles
system.cpu1.dcache.SwapReq_accesses::.cpu1.data         8913                       # number of SwapReq accesses(hits+misses)
system.cpu1.dcache.SwapReq_accesses::total         8913                       # number of SwapReq accesses(hits+misses)
system.cpu1.dcache.SwapReq_miss_rate::.cpu1.data     0.793336                       # miss rate for SwapReq accesses
system.cpu1.dcache.SwapReq_miss_rate::total     0.793336                       # miss rate for SwapReq accesses
system.cpu1.dcache.SwapReq_avg_miss_latency::.cpu1.data 25706.406166                       # average SwapReq miss latency
system.cpu1.dcache.SwapReq_avg_miss_latency::total 25706.406166                       # average SwapReq miss latency
system.cpu1.dcache.SwapReq_mshr_misses::.cpu1.data         7071                       # number of SwapReq MSHR misses
system.cpu1.dcache.SwapReq_mshr_misses::total         7071                       # number of SwapReq MSHR misses
system.cpu1.dcache.SwapReq_mshr_miss_latency::.cpu1.data    174698998                       # number of SwapReq MSHR miss cycles
system.cpu1.dcache.SwapReq_mshr_miss_latency::total    174698998                       # number of SwapReq MSHR miss cycles
system.cpu1.dcache.SwapReq_mshr_miss_rate::.cpu1.data     0.793336                       # mshr miss rate for SwapReq accesses
system.cpu1.dcache.SwapReq_mshr_miss_rate::total     0.793336                       # mshr miss rate for SwapReq accesses
system.cpu1.dcache.SwapReq_avg_mshr_miss_latency::.cpu1.data 24706.406166                       # average SwapReq mshr miss latency
system.cpu1.dcache.SwapReq_avg_mshr_miss_latency::total 24706.406166                       # average SwapReq mshr miss latency
system.cpu1.dcache.tags.pwrStateResidencyTicks::UNDEFINED 240425699500                       # Cumulative time (in ticks) in various power states
system.cpu1.dcache.tags.tagsinuse           31.634749                       # Cycle average of tags in use
system.cpu1.dcache.tags.total_refs           50257787                       # Total number of references to valid blocks.
system.cpu1.dcache.tags.sampled_refs          5467073                       # Sample count of references to valid blocks.
system.cpu1.dcache.tags.avg_refs             9.192814                       # Average number of references to valid blocks.
system.cpu1.dcache.tags.warmup_cycle                0                       # Cycle when the warmup percentage was hit.
system.cpu1.dcache.tags.occ_blocks::.cpu1.data    31.634749                       # Average occupied blocks per requestor
system.cpu1.dcache.tags.occ_percent::.cpu1.data     0.988586                       # Average percentage of cache occupancy
system.cpu1.dcache.tags.occ_percent::total     0.988586                       # Average percentage of cache occupancy
system.cpu1.dcache.tags.occ_task_id_blocks::1024           28                       # Occupied blocks per task id
system.cpu1.dcache.tags.age_task_id_blocks_1024::1           28                       # Occupied blocks per task id
system.cpu1.dcache.tags.occ_task_id_percent::1024     0.875000                       # Percentage of cache occupancy per task id
system.cpu1.dcache.tags.tag_accesses        133020329                       # Number of tag accesses
system.cpu1.dcache.tags.data_accesses       133020329                       # Number of data accesses
system.cpu_clk_domain.clock                       500                       # Clock period in ticks
system.tol2bus.pwrStateResidencyTicks::UNDEFINED 240425699500                       # Cumulative time (in ticks) in various power states
system.tol2bus.trans_dist::ReadResp          10866214                       # Transaction distribution
system.tol2bus.trans_dist::WritebackDirty      2084035                       # Transaction distribution
system.tol2bus.trans_dist::WritebackClean      9891956                       # Transaction distribution
system.tol2bus.trans_dist::CleanEvict        29296164                       # Transaction distribution
system.tol2bus.trans_dist::HardPFReq         28297525                       # Transaction distribution
system.tol2bus.trans_dist::HardPFResp               3                       # Transaction distribution
system.tol2bus.trans_dist::UpgradeReq          115330                       # Transaction distribution
system.tol2bus.trans_dist::SCUpgradeReq          4123                       # Transaction distribution
system.tol2bus.trans_dist::UpgradeResp         119453                       # Transaction distribution
system.tol2bus.trans_dist::SCUpgradeFailReq           18                       # Transaction distribution
system.tol2bus.trans_dist::UpgradeFailResp           18                       # Transaction distribution
system.tol2bus.trans_dist::ReadExReq           408276                       # Transaction distribution
system.tol2bus.trans_dist::ReadExResp          408276                       # Transaction distribution
system.tol2bus.trans_dist::ReadCleanReq        143794                       # Transaction distribution
system.tol2bus.trans_dist::ReadSharedReq     10722419                       # Transaction distribution
system.tol2bus.trans_dist::InvalidateReq         3825                       # Transaction distribution
system.tol2bus.trans_dist::InvalidateResp         3825                       # Transaction distribution
system.tol2bus.pkt_count_system.cpu0.icache.mem_side::system.l2.cpu_side       358361                       # Packet count per connected master and slave (bytes)
system.tol2bus.pkt_count_system.cpu0.dcache.mem_side::system.l2.cpu_side     16913497                       # Packet count per connected master and slave (bytes)
system.tol2bus.pkt_count_system.cpu1.icache.mem_side::system.l2.cpu_side        72855                       # Packet count per connected master and slave (bytes)
system.tol2bus.pkt_count_system.cpu1.dcache.mem_side::system.l2.cpu_side     16309587                       # Packet count per connected master and slave (bytes)
system.tol2bus.pkt_count::total              33654300                       # Packet count per connected master and slave (bytes)
system.tol2bus.pkt_size_system.cpu0.icache.mem_side::system.l2.cpu_side     15286528                       # Cumulative packet size per connected master and slave (bytes)
system.tol2bus.pkt_size_system.cpu0.dcache.mem_side::system.l2.cpu_side    714887232                       # Cumulative packet size per connected master and slave (bytes)
system.tol2bus.pkt_size_system.cpu1.icache.mem_side::system.l2.cpu_side      3108480                       # Cumulative packet size per connected master and slave (bytes)
system.tol2bus.pkt_size_system.cpu1.dcache.mem_side::system.l2.cpu_side    689390848                       # Cumulative packet size per connected master and slave (bytes)
system.tol2bus.pkt_size::total             1422673088                       # Cumulative packet size per connected master and slave (bytes)
system.tol2bus.snoops                        58710957                       # Total snoops (count)
system.tol2bus.snoopTraffic                  65359232                       # Total snoop traffic (bytes)
system.tol2bus.snoop_fanout::samples         69891313                       # Request fanout histogram
system.tol2bus.snoop_fanout::mean            0.142610                       # Request fanout histogram
system.tol2bus.snoop_fanout::stdev           0.370866                       # Request fanout histogram
system.tol2bus.snoop_fanout::underflows             0      0.00%      0.00% # Request fanout histogram
system.tol2bus.snoop_fanout::0               60457461     86.50%     86.50% # Request fanout histogram
system.tol2bus.snoop_fanout::1                8900821     12.74%     99.24% # Request fanout histogram
system.tol2bus.snoop_fanout::2                 532748      0.76%    100.00% # Request fanout histogram
system.tol2bus.snoop_fanout::3                    283      0.00%    100.00% # Request fanout histogram
system.tol2bus.snoop_fanout::4                      0      0.00%    100.00% # Request fanout histogram
system.tol2bus.snoop_fanout::5                      0      0.00%    100.00% # Request fanout histogram
system.tol2bus.snoop_fanout::6                      0      0.00%    100.00% # Request fanout histogram
system.tol2bus.snoop_fanout::7                      0      0.00%    100.00% # Request fanout histogram
system.tol2bus.snoop_fanout::8                      0      0.00%    100.00% # Request fanout histogram
system.tol2bus.snoop_fanout::overflows              0      0.00%    100.00% # Request fanout histogram
system.tol2bus.snoop_fanout::min_value              0                       # Request fanout histogram
system.tol2bus.snoop_fanout::max_value              3                       # Request fanout histogram
system.tol2bus.snoop_fanout::total           69891313                       # Request fanout histogram
system.tol2bus.reqLayer0.occupancy        22444627351                       # Layer occupancy (ticks)
system.tol2bus.reqLayer0.utilization              9.3                       # Layer utilization (%)
system.tol2bus.respLayer1.occupancy        8548325235                       # Layer occupancy (ticks)
system.tol2bus.respLayer1.utilization             3.6                       # Layer utilization (%)
system.tol2bus.respLayer0.occupancy         179386756                       # Layer occupancy (ticks)
system.tol2bus.respLayer0.utilization             0.1                       # Layer utilization (%)
system.tol2bus.respLayer3.occupancy        8250428242                       # Layer occupancy (ticks)
system.tol2bus.respLayer3.utilization             3.4                       # Layer utilization (%)
system.tol2bus.respLayer2.occupancy          36655543                       # Layer occupancy (ticks)
system.tol2bus.respLayer2.utilization             0.0                       # Layer utilization (%)
system.tol2bus.snoopLayer0.occupancy             4504                       # Layer occupancy (ticks)
system.tol2bus.snoopLayer0.utilization            0.0                       # Layer utilization (%)

---------- End Simulation Statistics   ----------
