
---------- Begin Simulation Statistics ----------
final_tick                               1928982534500                       # Number of ticks from beginning of simulation (restored from checkpoints and never reset)
host_inst_rate                                 100777                       # Simulator instruction rate (inst/s)
host_mem_usage                                 740104                       # Number of bytes of host memory used
host_op_rate                                   101103                       # Simulator op (including micro ops) rate (op/s)
host_seconds                                 23403.89                       # Real time elapsed on the host
host_tick_rate                               82421458                       # Simulator tick rate (ticks/s)
sim_freq                                 1000000000000                       # Frequency of simulated ticks
sim_insts                                  2358583942                       # Number of instructions simulated
sim_ops                                    2366194073                       # Number of ops (including micro ops) simulated
sim_seconds                                  1.928983                       # Number of seconds simulated
sim_ticks                                1928982534500                       # Number of ticks simulated
system.cpu0.branchPred.BTBCorrect                   0                       # Number of correct BTB predictions (this stat may not work properly.
system.cpu0.branchPred.BTBHitPct            87.313056                       # BTB Hit Percentage
system.cpu0.branchPred.BTBHits              298614173                       # Number of BTB hits
system.cpu0.branchPred.BTBLookups           342004034                       # Number of BTB lookups
system.cpu0.branchPred.RASInCorrect                 0                       # Number of incorrect RAS predictions.
system.cpu0.branchPred.condIncorrect         30772189                       # Number of conditional branches incorrect
system.cpu0.branchPred.condPredicted        451209515                       # Number of conditional branches predicted
system.cpu0.branchPred.indirectHits          40893136                       # Number of indirect target hits.
system.cpu0.branchPred.indirectLookups       41179952                       # Number of indirect predictor lookups.
system.cpu0.branchPred.indirectMisses          286816                       # Number of indirect misses.
system.cpu0.branchPred.lookups              587427903                       # Number of BP lookups
system.cpu0.branchPred.usedRAS                      0                       # Number of times the RAS was used to get a target.
system.cpu0.branchPredindirectMispredicted      3903578                       # Number of mispredicted indirect branches.
system.cpu0.commit.amos                       1901243                       # Number of atomic instructions committed
system.cpu0.commit.branchMispredicts         16989027                       # The number of times a branch was mispredicted
system.cpu0.commit.branches                 535055624                       # Number of branches committed
system.cpu0.commit.bw_lim_events             60885264                       # number cycles where commit BW limit reached
system.cpu0.commit.commitNonSpecStalls        5717967                       # The number of times commit has been forced to stall to communicate backwards
system.cpu0.commit.commitSquashedInsts      177898039                       # The number of squashed insts skipped by commit
system.cpu0.commit.committedInsts          2142614437                       # Number of instructions committed
system.cpu0.commit.committedOps            2144520972                       # Number of ops (including micro ops) committed
system.cpu0.commit.committed_per_cycle::samples   3480663267                       # Number of insts commited each cycle
system.cpu0.commit.committed_per_cycle::mean     0.616124                       # Number of insts commited each cycle
system.cpu0.commit.committed_per_cycle::stdev     1.382427                       # Number of insts commited each cycle
system.cpu0.commit.committed_per_cycle::underflows            0      0.00%      0.00% # Number of insts commited each cycle
system.cpu0.commit.committed_per_cycle::0   2446812237     70.30%     70.30% # Number of insts commited each cycle
system.cpu0.commit.committed_per_cycle::1    622114483     17.87%     88.17% # Number of insts commited each cycle
system.cpu0.commit.committed_per_cycle::2    136127991      3.91%     92.08% # Number of insts commited each cycle
system.cpu0.commit.committed_per_cycle::3    142220093      4.09%     96.17% # Number of insts commited each cycle
system.cpu0.commit.committed_per_cycle::4     44832305      1.29%     97.46% # Number of insts commited each cycle
system.cpu0.commit.committed_per_cycle::5     16387684      0.47%     97.93% # Number of insts commited each cycle
system.cpu0.commit.committed_per_cycle::6      3841994      0.11%     98.04% # Number of insts commited each cycle
system.cpu0.commit.committed_per_cycle::7      7441216      0.21%     98.25% # Number of insts commited each cycle
system.cpu0.commit.committed_per_cycle::8     60885264      1.75%    100.00% # Number of insts commited each cycle
system.cpu0.commit.committed_per_cycle::overflows            0      0.00%    100.00% # Number of insts commited each cycle
system.cpu0.commit.committed_per_cycle::min_value            0                       # Number of insts commited each cycle
system.cpu0.commit.committed_per_cycle::max_value            8                       # Number of insts commited each cycle
system.cpu0.commit.committed_per_cycle::total   3480663267                       # Number of insts commited each cycle
system.cpu0.commit.fp_insts                        50                       # Number of committed floating point instructions.
system.cpu0.commit.function_calls            43219880                       # Number of function calls committed.
system.cpu0.commit.int_insts               2072065701                       # Number of committed integer instructions.
system.cpu0.commit.loads                    668894688                       # Number of loads committed
system.cpu0.commit.membars                    3807648                       # Number of memory barriers committed
system.cpu0.commit.op_class_0::No_OpClass      3807654      0.18%      0.18% # Class of committed instruction
system.cpu0.commit.op_class_0::IntAlu      1188254789     55.41%     55.59% # Class of committed instruction
system.cpu0.commit.op_class_0::IntMult       18318163      0.85%     56.44% # Class of committed instruction
system.cpu0.commit.op_class_0::IntDiv         3801411      0.18%     56.62% # Class of committed instruction
system.cpu0.commit.op_class_0::FloatAdd             0      0.00%     56.62% # Class of committed instruction
system.cpu0.commit.op_class_0::FloatCmp             4      0.00%     56.62% # Class of committed instruction
system.cpu0.commit.op_class_0::FloatCvt            12      0.00%     56.62% # Class of committed instruction
system.cpu0.commit.op_class_0::FloatMult            0      0.00%     56.62% # Class of committed instruction
system.cpu0.commit.op_class_0::FloatMultAcc            0      0.00%     56.62% # Class of committed instruction
system.cpu0.commit.op_class_0::FloatDiv             2      0.00%     56.62% # Class of committed instruction
system.cpu0.commit.op_class_0::FloatMisc            4      0.00%     56.62% # Class of committed instruction
system.cpu0.commit.op_class_0::FloatSqrt            0      0.00%     56.62% # Class of committed instruction
system.cpu0.commit.op_class_0::SimdAdd              0      0.00%     56.62% # Class of committed instruction
system.cpu0.commit.op_class_0::SimdAddAcc            0      0.00%     56.62% # Class of committed instruction
system.cpu0.commit.op_class_0::SimdAlu              0      0.00%     56.62% # Class of committed instruction
system.cpu0.commit.op_class_0::SimdCmp              0      0.00%     56.62% # Class of committed instruction
system.cpu0.commit.op_class_0::SimdCvt              0      0.00%     56.62% # Class of committed instruction
system.cpu0.commit.op_class_0::SimdMisc             0      0.00%     56.62% # Class of committed instruction
system.cpu0.commit.op_class_0::SimdMult             0      0.00%     56.62% # Class of committed instruction
system.cpu0.commit.op_class_0::SimdMultAcc            0      0.00%     56.62% # Class of committed instruction
system.cpu0.commit.op_class_0::SimdShift            0      0.00%     56.62% # Class of committed instruction
system.cpu0.commit.op_class_0::SimdShiftAcc            0      0.00%     56.62% # Class of committed instruction
system.cpu0.commit.op_class_0::SimdDiv              0      0.00%     56.62% # Class of committed instruction
system.cpu0.commit.op_class_0::SimdSqrt             0      0.00%     56.62% # Class of committed instruction
system.cpu0.commit.op_class_0::SimdFloatAdd            0      0.00%     56.62% # Class of committed instruction
system.cpu0.commit.op_class_0::SimdFloatAlu            0      0.00%     56.62% # Class of committed instruction
system.cpu0.commit.op_class_0::SimdFloatCmp            0      0.00%     56.62% # Class of committed instruction
system.cpu0.commit.op_class_0::SimdFloatCvt            0      0.00%     56.62% # Class of committed instruction
system.cpu0.commit.op_class_0::SimdFloatDiv            0      0.00%     56.62% # Class of committed instruction
system.cpu0.commit.op_class_0::SimdFloatMisc            0      0.00%     56.62% # Class of committed instruction
system.cpu0.commit.op_class_0::SimdFloatMult            0      0.00%     56.62% # Class of committed instruction
system.cpu0.commit.op_class_0::SimdFloatMultAcc            0      0.00%     56.62% # Class of committed instruction
system.cpu0.commit.op_class_0::SimdFloatSqrt            0      0.00%     56.62% # Class of committed instruction
system.cpu0.commit.op_class_0::SimdReduceAdd            0      0.00%     56.62% # Class of committed instruction
system.cpu0.commit.op_class_0::SimdReduceAlu            0      0.00%     56.62% # Class of committed instruction
system.cpu0.commit.op_class_0::SimdReduceCmp            0      0.00%     56.62% # Class of committed instruction
system.cpu0.commit.op_class_0::SimdFloatReduceAdd            0      0.00%     56.62% # Class of committed instruction
system.cpu0.commit.op_class_0::SimdFloatReduceCmp            0      0.00%     56.62% # Class of committed instruction
system.cpu0.commit.op_class_0::SimdAes              0      0.00%     56.62% # Class of committed instruction
system.cpu0.commit.op_class_0::SimdAesMix            0      0.00%     56.62% # Class of committed instruction
system.cpu0.commit.op_class_0::SimdSha1Hash            0      0.00%     56.62% # Class of committed instruction
system.cpu0.commit.op_class_0::SimdSha1Hash2            0      0.00%     56.62% # Class of committed instruction
system.cpu0.commit.op_class_0::SimdSha256Hash            0      0.00%     56.62% # Class of committed instruction
system.cpu0.commit.op_class_0::SimdSha256Hash2            0      0.00%     56.62% # Class of committed instruction
system.cpu0.commit.op_class_0::SimdShaSigma2            0      0.00%     56.62% # Class of committed instruction
system.cpu0.commit.op_class_0::SimdShaSigma3            0      0.00%     56.62% # Class of committed instruction
system.cpu0.commit.op_class_0::SimdPredAlu            0      0.00%     56.62% # Class of committed instruction
system.cpu0.commit.op_class_0::MemRead      670795923     31.28%     87.90% # Class of committed instruction
system.cpu0.commit.op_class_0::MemWrite     259542982     12.10%    100.00% # Class of committed instruction
system.cpu0.commit.op_class_0::FloatMemRead            8      0.00%    100.00% # Class of committed instruction
system.cpu0.commit.op_class_0::FloatMemWrite           20      0.00%    100.00% # Class of committed instruction
system.cpu0.commit.op_class_0::IprAccess            0      0.00%    100.00% # Class of committed instruction
system.cpu0.commit.op_class_0::InstPrefetch            0      0.00%    100.00% # Class of committed instruction
system.cpu0.commit.op_class_0::total       2144520972                       # Class of committed instruction
system.cpu0.commit.refs                     930338933                       # Number of memory references committed
system.cpu0.commit.swp_count                        0                       # Number of s/w prefetches committed
system.cpu0.commit.vec_insts                        0                       # Number of committed Vector instructions.
system.cpu0.committedInsts                 2142614437                       # Number of Instructions Simulated
system.cpu0.committedOps                   2144520972                       # Number of Ops (including micro ops) Simulated
system.cpu0.cpi                              1.787648                       # CPI: Cycles Per Instruction
system.cpu0.cpi_total                        1.787648                       # CPI: Total CPI of All Threads
system.cpu0.decode.BlockedCycles            455674955                       # Number of cycles decode is blocked
system.cpu0.decode.BranchMispred             13788948                       # Number of times decode detected a branch misprediction
system.cpu0.decode.BranchResolved           289614632                       # Number of times decode resolved a branch
system.cpu0.decode.DecodedInsts            2360106920                       # Number of instructions handled by decode
system.cpu0.decode.IdleCycles              1387933567                       # Number of cycles decode is idle
system.cpu0.decode.RunCycles               1645887919                       # Number of cycles decode is running
system.cpu0.decode.SquashCycles              17004907                       # Number of cycles decode is squashing
system.cpu0.decode.SquashedInsts             23285188                       # Number of squashed instructions handled by decode
system.cpu0.decode.UnblockCycles              8016511                       # Number of cycles decode is unblocking
system.cpu0.dtb.accesses                            0                       # DTB accesses
system.cpu0.dtb.hits                                0                       # DTB hits
system.cpu0.dtb.misses                              0                       # DTB misses
system.cpu0.dtb.read_accesses                       0                       # DTB read accesses
system.cpu0.dtb.read_hits                           0                       # DTB read hits
system.cpu0.dtb.read_misses                         0                       # DTB read misses
system.cpu0.dtb.write_accesses                      0                       # DTB write accesses
system.cpu0.dtb.write_hits                          0                       # DTB write hits
system.cpu0.dtb.write_misses                        0                       # DTB write misses
system.cpu0.fetch.Branches                  587427903                       # Number of branches that fetch encountered
system.cpu0.fetch.CacheLines                397746402                       # Number of cache lines fetched
system.cpu0.fetch.Cycles                   2127056569                       # Number of cycles fetch has run and was not squashing or blocked
system.cpu0.fetch.IcacheSquashes             12167489                       # Number of outstanding Icache misses that were squashed
system.cpu0.fetch.IcacheWaitRetryStallCycles          135                       # Number of stall cycles due to full MSHR
system.cpu0.fetch.Insts                    2411593264                       # Number of instructions fetch has processed
system.cpu0.fetch.MiscStallCycles                  34                       # Number of cycles fetch has spent waiting on interrupts, or bad addresses, or out of MSHRs
system.cpu0.fetch.PendingTrapStallCycles          146                       # Number of stall cycles due to pending traps
system.cpu0.fetch.SquashCycles               61576180                       # Number of cycles fetch has spent squashing
system.cpu0.fetch.branchRate                 0.153366                       # Number of branch fetches per cycle
system.cpu0.fetch.icacheStallCycles        1356672885                       # Number of cycles fetch is stalled on an Icache miss
system.cpu0.fetch.predictedBranches         339507309                       # Number of branches that fetch has predicted taken
system.cpu0.fetch.rate                       0.629619                       # Number of inst fetches per cycle
system.cpu0.fetch.rateDist::samples        3514517859                       # Number of instructions fetched each cycle (Total)
system.cpu0.fetch.rateDist::mean             0.686723                       # Number of instructions fetched each cycle (Total)
system.cpu0.fetch.rateDist::stdev            0.913118                       # Number of instructions fetched each cycle (Total)
system.cpu0.fetch.rateDist::underflows              0      0.00%      0.00% # Number of instructions fetched each cycle (Total)
system.cpu0.fetch.rateDist::0              1808203345     51.45%     51.45% # Number of instructions fetched each cycle (Total)
system.cpu0.fetch.rateDist::1              1269971501     36.14%     87.58% # Number of instructions fetched each cycle (Total)
system.cpu0.fetch.rateDist::2               229619903      6.53%     94.12% # Number of instructions fetched each cycle (Total)
system.cpu0.fetch.rateDist::3               164315638      4.68%     98.79% # Number of instructions fetched each cycle (Total)
system.cpu0.fetch.rateDist::4                32537479      0.93%     99.72% # Number of instructions fetched each cycle (Total)
system.cpu0.fetch.rateDist::5                 5644879      0.16%     99.88% # Number of instructions fetched each cycle (Total)
system.cpu0.fetch.rateDist::6                  416299      0.01%     99.89% # Number of instructions fetched each cycle (Total)
system.cpu0.fetch.rateDist::7                     515      0.00%     99.89% # Number of instructions fetched each cycle (Total)
system.cpu0.fetch.rateDist::8                 3808300      0.11%    100.00% # Number of instructions fetched each cycle (Total)
system.cpu0.fetch.rateDist::overflows               0      0.00%    100.00% # Number of instructions fetched each cycle (Total)
system.cpu0.fetch.rateDist::min_value               0                       # Number of instructions fetched each cycle (Total)
system.cpu0.fetch.rateDist::max_value               8                       # Number of instructions fetched each cycle (Total)
system.cpu0.fetch.rateDist::total          3514517859                       # Number of instructions fetched each cycle (Total)
system.cpu0.fp_regfile_reads                       44                       # number of floating regfile reads
system.cpu0.fp_regfile_writes                      23                       # number of floating regfile writes
system.cpu0.idleCycles                      315722041                       # Total number of cycles that the CPU has spent unscheduled due to idling
system.cpu0.iew.branchMispredicts            18395584                       # Number of branch mispredicts detected at execute
system.cpu0.iew.exec_branches               554226653                       # Number of branches executed
system.cpu0.iew.exec_nop                            0                       # number of nop insts executed
system.cpu0.iew.exec_rate                    0.602866                       # Inst execution rate
system.cpu0.iew.exec_refs                  1043357731                       # number of memory reference insts executed
system.cpu0.iew.exec_stores                 278308722                       # Number of stores executed
system.cpu0.iew.exec_swp                            0                       # number of swp insts executed
system.cpu0.iew.iewBlockCycles              359981118                       # Number of cycles IEW is blocking
system.cpu0.iew.iewDispLoadInsts            762346237                       # Number of dispatched load instructions
system.cpu0.iew.iewDispNonSpecInsts           1910604                       # Number of dispatched non-speculative instructions
system.cpu0.iew.iewDispSquashedInsts          8697139                       # Number of squashed instructions skipped by dispatch
system.cpu0.iew.iewDispStoreInsts           280298888                       # Number of dispatched store instructions
system.cpu0.iew.iewDispatchedInsts         2322384233                       # Number of instructions dispatched to IQ
system.cpu0.iew.iewExecLoadInsts            765049009                       # Number of load instructions executed
system.cpu0.iew.iewExecSquashedInsts         13856653                       # Number of squashed instructions skipped in execute
system.cpu0.iew.iewExecutedInsts           2309121753                       # Number of executed instructions
system.cpu0.iew.iewIQFullEvents               1799048                       # Number of times the IQ has become full, causing a stall
system.cpu0.iew.iewIdleCycles                       0                       # Number of cycles IEW is idle
system.cpu0.iew.iewLSQFullEvents              9213841                       # Number of times the LSQ has become full, causing a stall
system.cpu0.iew.iewSquashCycles              17004907                       # Number of cycles IEW is squashing
system.cpu0.iew.iewUnblockCycles             13071235                       # Number of cycles IEW is unblocking
system.cpu0.iew.lsq.thread0.blockedLoads            0                       # Number of blocked loads due to partial load-store forwarding
system.cpu0.iew.lsq.thread0.cacheBlocked       223170                       # Number of times an access to memory failed due to the cache being blocked
system.cpu0.iew.lsq.thread0.forwLoads        35364030                       # Number of loads that had data forwarded from stores
system.cpu0.iew.lsq.thread0.ignoredResponses       155323                       # Number of memory responses ignored because the instruction is squashed
system.cpu0.iew.lsq.thread0.invAddrLoads            0                       # Number of loads ignored due to an invalid address
system.cpu0.iew.lsq.thread0.invAddrSwpfs            0                       # Number of software prefetches ignored due to an invalid address
system.cpu0.iew.lsq.thread0.memOrderViolation        16033                       # Number of memory ordering violations
system.cpu0.iew.lsq.thread0.rescheduledLoads     11740776                       # Number of loads that were rescheduled
system.cpu0.iew.lsq.thread0.squashedLoads     93451549                       # Number of loads squashed
system.cpu0.iew.lsq.thread0.squashedStores     18854643                       # Number of stores squashed
system.cpu0.iew.memOrderViolationEvents         16033                       # Number of memory order violations
system.cpu0.iew.predictedNotTakenIncorrect      1909140                       # Number of branches that were predicted not taken incorrectly
system.cpu0.iew.predictedTakenIncorrect      16486444                       # Number of branches that were predicted taken incorrectly
system.cpu0.iew.wb_consumers               1011445635                       # num instructions consuming a value
system.cpu0.iew.wb_count                   2283205042                       # cumulative count of insts written-back
system.cpu0.iew.wb_fanout                    0.839825                       # average fanout of values written-back
system.cpu0.iew.wb_producers                849437410                       # num instructions producing a value
system.cpu0.iew.wb_rate                      0.596100                       # insts written-back per cycle
system.cpu0.iew.wb_sent                    2283480512                       # cumulative count of insts sent to commit
system.cpu0.int_regfile_reads              2809656843                       # number of integer regfile reads
system.cpu0.int_regfile_writes             1470998356                       # number of integer regfile writes
system.cpu0.ipc                              0.559394                       # IPC: Instructions Per Cycle
system.cpu0.ipc_total                        0.559394                       # IPC: Total IPC of All Threads
system.cpu0.iq.FU_type_0::No_OpClass          3810720      0.16%      0.16% # Type of FU issued
system.cpu0.iq.FU_type_0::IntAlu           1248769291     53.76%     53.92% # Type of FU issued
system.cpu0.iq.FU_type_0::IntMult            18650307      0.80%     54.72% # Type of FU issued
system.cpu0.iq.FU_type_0::IntDiv              3802475      0.16%     54.89% # Type of FU issued
system.cpu0.iq.FU_type_0::FloatAdd                  0      0.00%     54.89% # Type of FU issued
system.cpu0.iq.FU_type_0::FloatCmp                  4      0.00%     54.89% # Type of FU issued
system.cpu0.iq.FU_type_0::FloatCvt                 12      0.00%     54.89% # Type of FU issued
system.cpu0.iq.FU_type_0::FloatMult                 0      0.00%     54.89% # Type of FU issued
system.cpu0.iq.FU_type_0::FloatMultAcc              0      0.00%     54.89% # Type of FU issued
system.cpu0.iq.FU_type_0::FloatDiv                  2      0.00%     54.89% # Type of FU issued
system.cpu0.iq.FU_type_0::FloatMisc                 4      0.00%     54.89% # Type of FU issued
system.cpu0.iq.FU_type_0::FloatSqrt                 0      0.00%     54.89% # Type of FU issued
system.cpu0.iq.FU_type_0::SimdAdd                   0      0.00%     54.89% # Type of FU issued
system.cpu0.iq.FU_type_0::SimdAddAcc                0      0.00%     54.89% # Type of FU issued
system.cpu0.iq.FU_type_0::SimdAlu                   0      0.00%     54.89% # Type of FU issued
system.cpu0.iq.FU_type_0::SimdCmp                   0      0.00%     54.89% # Type of FU issued
system.cpu0.iq.FU_type_0::SimdCvt                   0      0.00%     54.89% # Type of FU issued
system.cpu0.iq.FU_type_0::SimdMisc                  0      0.00%     54.89% # Type of FU issued
system.cpu0.iq.FU_type_0::SimdMult                  0      0.00%     54.89% # Type of FU issued
system.cpu0.iq.FU_type_0::SimdMultAcc               0      0.00%     54.89% # Type of FU issued
system.cpu0.iq.FU_type_0::SimdShift                 0      0.00%     54.89% # Type of FU issued
system.cpu0.iq.FU_type_0::SimdShiftAcc              0      0.00%     54.89% # Type of FU issued
system.cpu0.iq.FU_type_0::SimdDiv                   0      0.00%     54.89% # Type of FU issued
system.cpu0.iq.FU_type_0::SimdSqrt                  0      0.00%     54.89% # Type of FU issued
system.cpu0.iq.FU_type_0::SimdFloatAdd              0      0.00%     54.89% # Type of FU issued
system.cpu0.iq.FU_type_0::SimdFloatAlu              0      0.00%     54.89% # Type of FU issued
system.cpu0.iq.FU_type_0::SimdFloatCmp              0      0.00%     54.89% # Type of FU issued
system.cpu0.iq.FU_type_0::SimdFloatCvt              0      0.00%     54.89% # Type of FU issued
system.cpu0.iq.FU_type_0::SimdFloatDiv              0      0.00%     54.89% # Type of FU issued
system.cpu0.iq.FU_type_0::SimdFloatMisc             0      0.00%     54.89% # Type of FU issued
system.cpu0.iq.FU_type_0::SimdFloatMult             0      0.00%     54.89% # Type of FU issued
system.cpu0.iq.FU_type_0::SimdFloatMultAcc            0      0.00%     54.89% # Type of FU issued
system.cpu0.iq.FU_type_0::SimdFloatSqrt             0      0.00%     54.89% # Type of FU issued
system.cpu0.iq.FU_type_0::SimdReduceAdd             0      0.00%     54.89% # Type of FU issued
system.cpu0.iq.FU_type_0::SimdReduceAlu             0      0.00%     54.89% # Type of FU issued
system.cpu0.iq.FU_type_0::SimdReduceCmp             0      0.00%     54.89% # Type of FU issued
system.cpu0.iq.FU_type_0::SimdFloatReduceAdd            0      0.00%     54.89% # Type of FU issued
system.cpu0.iq.FU_type_0::SimdFloatReduceCmp            0      0.00%     54.89% # Type of FU issued
system.cpu0.iq.FU_type_0::SimdAes                   0      0.00%     54.89% # Type of FU issued
system.cpu0.iq.FU_type_0::SimdAesMix                0      0.00%     54.89% # Type of FU issued
system.cpu0.iq.FU_type_0::SimdSha1Hash              0      0.00%     54.89% # Type of FU issued
system.cpu0.iq.FU_type_0::SimdSha1Hash2             0      0.00%     54.89% # Type of FU issued
system.cpu0.iq.FU_type_0::SimdSha256Hash            0      0.00%     54.89% # Type of FU issued
system.cpu0.iq.FU_type_0::SimdSha256Hash2            0      0.00%     54.89% # Type of FU issued
system.cpu0.iq.FU_type_0::SimdShaSigma2             0      0.00%     54.89% # Type of FU issued
system.cpu0.iq.FU_type_0::SimdShaSigma3             0      0.00%     54.89% # Type of FU issued
system.cpu0.iq.FU_type_0::SimdPredAlu               0      0.00%     54.89% # Type of FU issued
system.cpu0.iq.FU_type_0::MemRead           771027743     33.19%     88.08% # Type of FU issued
system.cpu0.iq.FU_type_0::MemWrite          276917819     11.92%    100.00% # Type of FU issued
system.cpu0.iq.FU_type_0::FloatMemRead              9      0.00%    100.00% # Type of FU issued
system.cpu0.iq.FU_type_0::FloatMemWrite            20      0.00%    100.00% # Type of FU issued
system.cpu0.iq.FU_type_0::IprAccess                 0      0.00%    100.00% # Type of FU issued
system.cpu0.iq.FU_type_0::InstPrefetch              0      0.00%    100.00% # Type of FU issued
system.cpu0.iq.FU_type_0::total            2322978406                       # Type of FU issued
system.cpu0.iq.fp_alu_accesses                     55                       # Number of floating point alu accesses
system.cpu0.iq.fp_inst_queue_reads                106                       # Number of floating instruction queue reads
system.cpu0.iq.fp_inst_queue_wakeup_accesses           51                       # Number of floating instruction queue wakeup accesses
system.cpu0.iq.fp_inst_queue_writes               122                       # Number of floating instruction queue writes
system.cpu0.iq.fu_busy_cnt                    2775517                       # FU busy when requested
system.cpu0.iq.fu_busy_rate                  0.001195                       # FU busy rate (busy events/executed inst)
system.cpu0.iq.fu_full::No_OpClass                  0      0.00%      0.00% # attempts to use FU when none available
system.cpu0.iq.fu_full::IntAlu                 478911     17.25%     17.25% # attempts to use FU when none available
system.cpu0.iq.fu_full::IntMult                    16      0.00%     17.26% # attempts to use FU when none available
system.cpu0.iq.fu_full::IntDiv                      0      0.00%     17.26% # attempts to use FU when none available
system.cpu0.iq.fu_full::FloatAdd                    0      0.00%     17.26% # attempts to use FU when none available
system.cpu0.iq.fu_full::FloatCmp                    0      0.00%     17.26% # attempts to use FU when none available
system.cpu0.iq.fu_full::FloatCvt                    0      0.00%     17.26% # attempts to use FU when none available
system.cpu0.iq.fu_full::FloatMult                   0      0.00%     17.26% # attempts to use FU when none available
system.cpu0.iq.fu_full::FloatMultAcc                0      0.00%     17.26% # attempts to use FU when none available
system.cpu0.iq.fu_full::FloatDiv                    0      0.00%     17.26% # attempts to use FU when none available
system.cpu0.iq.fu_full::FloatMisc                   0      0.00%     17.26% # attempts to use FU when none available
system.cpu0.iq.fu_full::FloatSqrt                   0      0.00%     17.26% # attempts to use FU when none available
system.cpu0.iq.fu_full::SimdAdd                     0      0.00%     17.26% # attempts to use FU when none available
system.cpu0.iq.fu_full::SimdAddAcc                  0      0.00%     17.26% # attempts to use FU when none available
system.cpu0.iq.fu_full::SimdAlu                     0      0.00%     17.26% # attempts to use FU when none available
system.cpu0.iq.fu_full::SimdCmp                     0      0.00%     17.26% # attempts to use FU when none available
system.cpu0.iq.fu_full::SimdCvt                     0      0.00%     17.26% # attempts to use FU when none available
system.cpu0.iq.fu_full::SimdMisc                    0      0.00%     17.26% # attempts to use FU when none available
system.cpu0.iq.fu_full::SimdMult                    0      0.00%     17.26% # attempts to use FU when none available
system.cpu0.iq.fu_full::SimdMultAcc                 0      0.00%     17.26% # attempts to use FU when none available
system.cpu0.iq.fu_full::SimdShift                   0      0.00%     17.26% # attempts to use FU when none available
system.cpu0.iq.fu_full::SimdShiftAcc                0      0.00%     17.26% # attempts to use FU when none available
system.cpu0.iq.fu_full::SimdDiv                     0      0.00%     17.26% # attempts to use FU when none available
system.cpu0.iq.fu_full::SimdSqrt                    0      0.00%     17.26% # attempts to use FU when none available
system.cpu0.iq.fu_full::SimdFloatAdd                0      0.00%     17.26% # attempts to use FU when none available
system.cpu0.iq.fu_full::SimdFloatAlu                0      0.00%     17.26% # attempts to use FU when none available
system.cpu0.iq.fu_full::SimdFloatCmp                0      0.00%     17.26% # attempts to use FU when none available
system.cpu0.iq.fu_full::SimdFloatCvt                0      0.00%     17.26% # attempts to use FU when none available
system.cpu0.iq.fu_full::SimdFloatDiv                0      0.00%     17.26% # attempts to use FU when none available
system.cpu0.iq.fu_full::SimdFloatMisc               0      0.00%     17.26% # attempts to use FU when none available
system.cpu0.iq.fu_full::SimdFloatMult               0      0.00%     17.26% # attempts to use FU when none available
system.cpu0.iq.fu_full::SimdFloatMultAcc            0      0.00%     17.26% # attempts to use FU when none available
system.cpu0.iq.fu_full::SimdFloatSqrt               0      0.00%     17.26% # attempts to use FU when none available
system.cpu0.iq.fu_full::SimdReduceAdd               0      0.00%     17.26% # attempts to use FU when none available
system.cpu0.iq.fu_full::SimdReduceAlu               0      0.00%     17.26% # attempts to use FU when none available
system.cpu0.iq.fu_full::SimdReduceCmp               0      0.00%     17.26% # attempts to use FU when none available
system.cpu0.iq.fu_full::SimdFloatReduceAdd            0      0.00%     17.26% # attempts to use FU when none available
system.cpu0.iq.fu_full::SimdFloatReduceCmp            0      0.00%     17.26% # attempts to use FU when none available
system.cpu0.iq.fu_full::SimdAes                     0      0.00%     17.26% # attempts to use FU when none available
system.cpu0.iq.fu_full::SimdAesMix                  0      0.00%     17.26% # attempts to use FU when none available
system.cpu0.iq.fu_full::SimdSha1Hash                0      0.00%     17.26% # attempts to use FU when none available
system.cpu0.iq.fu_full::SimdSha1Hash2               0      0.00%     17.26% # attempts to use FU when none available
system.cpu0.iq.fu_full::SimdSha256Hash              0      0.00%     17.26% # attempts to use FU when none available
system.cpu0.iq.fu_full::SimdSha256Hash2             0      0.00%     17.26% # attempts to use FU when none available
system.cpu0.iq.fu_full::SimdShaSigma2               0      0.00%     17.26% # attempts to use FU when none available
system.cpu0.iq.fu_full::SimdShaSigma3               0      0.00%     17.26% # attempts to use FU when none available
system.cpu0.iq.fu_full::SimdPredAlu                 0      0.00%     17.26% # attempts to use FU when none available
system.cpu0.iq.fu_full::MemRead               1868070     67.31%     84.56% # attempts to use FU when none available
system.cpu0.iq.fu_full::MemWrite               428516     15.44%    100.00% # attempts to use FU when none available
system.cpu0.iq.fu_full::FloatMemRead                0      0.00%    100.00% # attempts to use FU when none available
system.cpu0.iq.fu_full::FloatMemWrite               4      0.00%    100.00% # attempts to use FU when none available
system.cpu0.iq.fu_full::IprAccess                   0      0.00%    100.00% # attempts to use FU when none available
system.cpu0.iq.fu_full::InstPrefetch                0      0.00%    100.00% # attempts to use FU when none available
system.cpu0.iq.int_alu_accesses            2321943148                       # Number of integer alu accesses
system.cpu0.iq.int_inst_queue_reads        8163421130                       # Number of integer instruction queue reads
system.cpu0.iq.int_inst_queue_wakeup_accesses   2283204991                       # Number of integer instruction queue wakeup accesses
system.cpu0.iq.int_inst_queue_writes       2500262129                       # Number of integer instruction queue writes
system.cpu0.iq.iqInstsAdded                2316665682                       # Number of instructions added to the IQ (excludes non-spec)
system.cpu0.iq.iqInstsIssued               2322978406                       # Number of instructions issued
system.cpu0.iq.iqNonSpecInstsAdded            5718551                       # Number of non-speculative instructions added to the IQ
system.cpu0.iq.iqSquashedInstsExamined      177863258                       # Number of squashed instructions iterated over during squash; mainly for profiling
system.cpu0.iq.iqSquashedInstsIssued           171048                       # Number of squashed instructions issued
system.cpu0.iq.iqSquashedNonSpecRemoved           584                       # Number of squashed non-spec instructions that were removed
system.cpu0.iq.iqSquashedOperandsExamined     35462322                       # Number of squashed operands that are examined and possibly removed from graph
system.cpu0.iq.issued_per_cycle::samples   3514517859                       # Number of insts issued each cycle
system.cpu0.iq.issued_per_cycle::mean        0.660966                       # Number of insts issued each cycle
system.cpu0.iq.issued_per_cycle::stdev       0.855154                       # Number of insts issued each cycle
system.cpu0.iq.issued_per_cycle::underflows            0      0.00%      0.00% # Number of insts issued each cycle
system.cpu0.iq.issued_per_cycle::0         1882759290     53.57%     53.57% # Number of insts issued each cycle
system.cpu0.iq.issued_per_cycle::1         1105920860     31.47%     85.04% # Number of insts issued each cycle
system.cpu0.iq.issued_per_cycle::2          386490947     11.00%     96.04% # Number of insts issued each cycle
system.cpu0.iq.issued_per_cycle::3          118596782      3.37%     99.41% # Number of insts issued each cycle
system.cpu0.iq.issued_per_cycle::4           17879160      0.51%     99.92% # Number of insts issued each cycle
system.cpu0.iq.issued_per_cycle::5            1178951      0.03%     99.95% # Number of insts issued each cycle
system.cpu0.iq.issued_per_cycle::6            1188170      0.03%     99.99% # Number of insts issued each cycle
system.cpu0.iq.issued_per_cycle::7             284701      0.01%     99.99% # Number of insts issued each cycle
system.cpu0.iq.issued_per_cycle::8             218998      0.01%    100.00% # Number of insts issued each cycle
system.cpu0.iq.issued_per_cycle::overflows            0      0.00%    100.00% # Number of insts issued each cycle
system.cpu0.iq.issued_per_cycle::min_value            0                       # Number of insts issued each cycle
system.cpu0.iq.issued_per_cycle::max_value            8                       # Number of insts issued each cycle
system.cpu0.iq.issued_per_cycle::total     3514517859                       # Number of insts issued each cycle
system.cpu0.iq.rate                          0.606484                       # Inst issue rate
system.cpu0.iq.vec_alu_accesses                     0                       # Number of vector alu accesses
system.cpu0.iq.vec_inst_queue_reads                 0                       # Number of vector instruction queue reads
system.cpu0.iq.vec_inst_queue_wakeup_accesses            0                       # Number of vector instruction queue wakeup accesses
system.cpu0.iq.vec_inst_queue_writes                0                       # Number of vector instruction queue writes
system.cpu0.itb.accesses                            0                       # DTB accesses
system.cpu0.itb.hits                                0                       # DTB hits
system.cpu0.itb.misses                              0                       # DTB misses
system.cpu0.itb.read_accesses                       0                       # DTB read accesses
system.cpu0.itb.read_hits                           0                       # DTB read hits
system.cpu0.itb.read_misses                         0                       # DTB read misses
system.cpu0.itb.write_accesses                      0                       # DTB write accesses
system.cpu0.itb.write_hits                          0                       # DTB write hits
system.cpu0.itb.write_misses                        0                       # DTB write misses
system.cpu0.memDep0.conflictingLoads         25600119                       # Number of conflicting loads.
system.cpu0.memDep0.conflictingStores         3833437                       # Number of conflicting stores.
system.cpu0.memDep0.insertedLoads           762346237                       # Number of loads inserted to the mem dependence unit.
system.cpu0.memDep0.insertedStores          280298888                       # Number of stores inserted to the mem dependence unit.
system.cpu0.misc_regfile_reads                   3051                       # number of misc regfile reads
system.cpu0.misc_regfile_writes                    22                       # number of misc regfile writes
system.cpu0.numCycles                      3830239900                       # number of cpu cycles simulated
system.cpu0.numWorkItemsCompleted                   0                       # number of work items this cpu completed
system.cpu0.numWorkItemsStarted                     0                       # number of work items this cpu started
system.cpu0.quiesceCycles                    27725206                       # Total number of cycles that CPU has spent quiesced or waiting for an interrupt
system.cpu0.rename.BlockCycles              388836117                       # Number of cycles rename is blocking
system.cpu0.rename.CommittedMaps           1365794992                       # Number of HB maps that are committed
system.cpu0.rename.IQFullEvents              13727741                       # Number of times rename has blocked due to IQ full
system.cpu0.rename.IdleCycles              1403671800                       # Number of cycles rename is idle
system.cpu0.rename.LQFullEvents              23074590                       # Number of times rename has blocked due to LQ full
system.cpu0.rename.ROBFullEvents                58882                       # Number of times rename has blocked due to ROB full
system.cpu0.rename.RenameLookups           2856412191                       # Number of register rename lookups that rename has made
system.cpu0.rename.RenamedInsts            2349532482                       # Number of instructions processed by rename
system.cpu0.rename.RenamedOperands         1525178730                       # Number of destination operands rename has renamed
system.cpu0.rename.RunCycles               1637056443                       # Number of cycles rename is running
system.cpu0.rename.SQFullEvents              30754509                       # Number of times rename has blocked due to SQ full
system.cpu0.rename.SquashCycles              17004907                       # Number of cycles rename is squashing
system.cpu0.rename.UnblockCycles             67703013                       # Number of cycles rename is unblocking
system.cpu0.rename.UndoneMaps               159383734                       # Number of HB maps that are undone due to squashing
system.cpu0.rename.fp_rename_lookups               44                       # Number of floating rename lookups
system.cpu0.rename.int_rename_lookups      2856412147                       # Number of integer rename lookups
system.cpu0.rename.serializeStallCycles        245579                       # count of cycles rename stalled for serializing inst
system.cpu0.rename.serializingInsts              9239                       # count of serializing insts renamed
system.cpu0.rename.skidInsts                 28238418                       # count of insts added to the skid buffer
system.cpu0.rename.tempSerializingInsts          9221                       # count of temporary serializing insts renamed
system.cpu0.rob.rob_reads                  5742157962                       # The number of ROB reads
system.cpu0.rob.rob_writes                 4678722376                       # The number of ROB writes
system.cpu0.timesIdled                       45284300                       # Number of times that the entire CPU went into an idle state and unscheduled itself
system.cpu0.workload.numSyscalls                 3018                       # Number of system calls
system.cpu1.branchPred.BTBCorrect                   0                       # Number of correct BTB predictions (this stat may not work properly.
system.cpu1.branchPred.BTBHitPct            85.818111                       # BTB Hit Percentage
system.cpu1.branchPred.BTBHits               14027764                       # Number of BTB hits
system.cpu1.branchPred.BTBLookups            16345925                       # Number of BTB lookups
system.cpu1.branchPred.RASInCorrect                 0                       # Number of incorrect RAS predictions.
system.cpu1.branchPred.condIncorrect          1718320                       # Number of conditional branches incorrect
system.cpu1.branchPred.condPredicted         22633192                       # Number of conditional branches predicted
system.cpu1.branchPred.indirectHits            672287                       # Number of indirect target hits.
system.cpu1.branchPred.indirectLookups         682662                       # Number of indirect predictor lookups.
system.cpu1.branchPred.indirectMisses           10375                       # Number of indirect misses.
system.cpu1.branchPred.lookups               25865036                       # Number of BP lookups
system.cpu1.branchPred.usedRAS                      0                       # Number of times the RAS was used to get a target.
system.cpu1.branchPredindirectMispredicted        60054                       # Number of mispredicted indirect branches.
system.cpu1.commit.amos                       1901001                       # Number of atomic instructions committed
system.cpu1.commit.branchMispredicts          1446373                       # The number of times a branch was mispredicted
system.cpu1.commit.branches                  20323611                       # Number of branches committed
system.cpu1.commit.bw_lim_events              1850187                       # number cycles where commit BW limit reached
system.cpu1.commit.commitNonSpecStalls        5703711                       # The number of times commit has been forced to stall to communicate backwards
system.cpu1.commit.commitSquashedInsts       12335911                       # The number of squashed insts skipped by commit
system.cpu1.commit.committedInsts            84582343                       # Number of instructions committed
system.cpu1.commit.committedOps              86483537                       # Number of ops (including micro ops) committed
system.cpu1.commit.committed_per_cycle::samples    474729026                       # Number of insts commited each cycle
system.cpu1.commit.committed_per_cycle::mean     0.182175                       # Number of insts commited each cycle
system.cpu1.commit.committed_per_cycle::stdev     0.821875                       # Number of insts commited each cycle
system.cpu1.commit.committed_per_cycle::underflows            0      0.00%      0.00% # Number of insts commited each cycle
system.cpu1.commit.committed_per_cycle::0    437886482     92.24%     92.24% # Number of insts commited each cycle
system.cpu1.commit.committed_per_cycle::1     18073333      3.81%     96.05% # Number of insts commited each cycle
system.cpu1.commit.committed_per_cycle::2      6416025      1.35%     97.40% # Number of insts commited each cycle
system.cpu1.commit.committed_per_cycle::3      6099823      1.28%     98.68% # Number of insts commited each cycle
system.cpu1.commit.committed_per_cycle::4      1843831      0.39%     99.07% # Number of insts commited each cycle
system.cpu1.commit.committed_per_cycle::5       521642      0.11%     99.18% # Number of insts commited each cycle
system.cpu1.commit.committed_per_cycle::6      1770266      0.37%     99.55% # Number of insts commited each cycle
system.cpu1.commit.committed_per_cycle::7       267437      0.06%     99.61% # Number of insts commited each cycle
system.cpu1.commit.committed_per_cycle::8      1850187      0.39%    100.00% # Number of insts commited each cycle
system.cpu1.commit.committed_per_cycle::overflows            0      0.00%    100.00% # Number of insts commited each cycle
system.cpu1.commit.committed_per_cycle::min_value            0                       # Number of insts commited each cycle
system.cpu1.commit.committed_per_cycle::max_value            8                       # Number of insts commited each cycle
system.cpu1.commit.committed_per_cycle::total    474729026                       # Number of insts commited each cycle
system.cpu1.commit.fp_insts                        12                       # Number of committed floating point instructions.
system.cpu1.commit.function_calls              975712                       # Number of function calls committed.
system.cpu1.commit.int_insts                 81488030                       # Number of committed integer instructions.
system.cpu1.commit.loads                     23225780                       # Number of loads committed
system.cpu1.commit.membars                    3802063                       # Number of memory barriers committed
system.cpu1.commit.op_class_0::No_OpClass      3802063      4.40%      4.40% # Class of committed instruction
system.cpu1.commit.op_class_0::IntAlu        51384587     59.42%     63.81% # Class of committed instruction
system.cpu1.commit.op_class_0::IntMult             44      0.00%     63.81% # Class of committed instruction
system.cpu1.commit.op_class_0::IntDiv              88      0.00%     63.81% # Class of committed instruction
system.cpu1.commit.op_class_0::FloatAdd             0      0.00%     63.81% # Class of committed instruction
system.cpu1.commit.op_class_0::FloatCmp             0      0.00%     63.81% # Class of committed instruction
system.cpu1.commit.op_class_0::FloatCvt             0      0.00%     63.81% # Class of committed instruction
system.cpu1.commit.op_class_0::FloatMult            0      0.00%     63.81% # Class of committed instruction
system.cpu1.commit.op_class_0::FloatMultAcc            0      0.00%     63.81% # Class of committed instruction
system.cpu1.commit.op_class_0::FloatDiv             0      0.00%     63.81% # Class of committed instruction
system.cpu1.commit.op_class_0::FloatMisc            0      0.00%     63.81% # Class of committed instruction
system.cpu1.commit.op_class_0::FloatSqrt            0      0.00%     63.81% # Class of committed instruction
system.cpu1.commit.op_class_0::SimdAdd              0      0.00%     63.81% # Class of committed instruction
system.cpu1.commit.op_class_0::SimdAddAcc            0      0.00%     63.81% # Class of committed instruction
system.cpu1.commit.op_class_0::SimdAlu              0      0.00%     63.81% # Class of committed instruction
system.cpu1.commit.op_class_0::SimdCmp              0      0.00%     63.81% # Class of committed instruction
system.cpu1.commit.op_class_0::SimdCvt              0      0.00%     63.81% # Class of committed instruction
system.cpu1.commit.op_class_0::SimdMisc             0      0.00%     63.81% # Class of committed instruction
system.cpu1.commit.op_class_0::SimdMult             0      0.00%     63.81% # Class of committed instruction
system.cpu1.commit.op_class_0::SimdMultAcc            0      0.00%     63.81% # Class of committed instruction
system.cpu1.commit.op_class_0::SimdShift            0      0.00%     63.81% # Class of committed instruction
system.cpu1.commit.op_class_0::SimdShiftAcc            0      0.00%     63.81% # Class of committed instruction
system.cpu1.commit.op_class_0::SimdDiv              0      0.00%     63.81% # Class of committed instruction
system.cpu1.commit.op_class_0::SimdSqrt             0      0.00%     63.81% # Class of committed instruction
system.cpu1.commit.op_class_0::SimdFloatAdd            0      0.00%     63.81% # Class of committed instruction
system.cpu1.commit.op_class_0::SimdFloatAlu            0      0.00%     63.81% # Class of committed instruction
system.cpu1.commit.op_class_0::SimdFloatCmp            0      0.00%     63.81% # Class of committed instruction
system.cpu1.commit.op_class_0::SimdFloatCvt            0      0.00%     63.81% # Class of committed instruction
system.cpu1.commit.op_class_0::SimdFloatDiv            0      0.00%     63.81% # Class of committed instruction
system.cpu1.commit.op_class_0::SimdFloatMisc            0      0.00%     63.81% # Class of committed instruction
system.cpu1.commit.op_class_0::SimdFloatMult            0      0.00%     63.81% # Class of committed instruction
system.cpu1.commit.op_class_0::SimdFloatMultAcc            0      0.00%     63.81% # Class of committed instruction
system.cpu1.commit.op_class_0::SimdFloatSqrt            0      0.00%     63.81% # Class of committed instruction
system.cpu1.commit.op_class_0::SimdReduceAdd            0      0.00%     63.81% # Class of committed instruction
system.cpu1.commit.op_class_0::SimdReduceAlu            0      0.00%     63.81% # Class of committed instruction
system.cpu1.commit.op_class_0::SimdReduceCmp            0      0.00%     63.81% # Class of committed instruction
system.cpu1.commit.op_class_0::SimdFloatReduceAdd            0      0.00%     63.81% # Class of committed instruction
system.cpu1.commit.op_class_0::SimdFloatReduceCmp            0      0.00%     63.81% # Class of committed instruction
system.cpu1.commit.op_class_0::SimdAes              0      0.00%     63.81% # Class of committed instruction
system.cpu1.commit.op_class_0::SimdAesMix            0      0.00%     63.81% # Class of committed instruction
system.cpu1.commit.op_class_0::SimdSha1Hash            0      0.00%     63.81% # Class of committed instruction
system.cpu1.commit.op_class_0::SimdSha1Hash2            0      0.00%     63.81% # Class of committed instruction
system.cpu1.commit.op_class_0::SimdSha256Hash            0      0.00%     63.81% # Class of committed instruction
system.cpu1.commit.op_class_0::SimdSha256Hash2            0      0.00%     63.81% # Class of committed instruction
system.cpu1.commit.op_class_0::SimdShaSigma2            0      0.00%     63.81% # Class of committed instruction
system.cpu1.commit.op_class_0::SimdShaSigma3            0      0.00%     63.81% # Class of committed instruction
system.cpu1.commit.op_class_0::SimdPredAlu            0      0.00%     63.81% # Class of committed instruction
system.cpu1.commit.op_class_0::MemRead       25126781     29.05%     92.87% # Class of committed instruction
system.cpu1.commit.op_class_0::MemWrite       6169962      7.13%    100.00% # Class of committed instruction
system.cpu1.commit.op_class_0::FloatMemRead            0      0.00%    100.00% # Class of committed instruction
system.cpu1.commit.op_class_0::FloatMemWrite           12      0.00%    100.00% # Class of committed instruction
system.cpu1.commit.op_class_0::IprAccess            0      0.00%    100.00% # Class of committed instruction
system.cpu1.commit.op_class_0::InstPrefetch            0      0.00%    100.00% # Class of committed instruction
system.cpu1.commit.op_class_0::total         86483537                       # Class of committed instruction
system.cpu1.commit.refs                      31296755                       # Number of memory references committed
system.cpu1.commit.swp_count                        0                       # Number of s/w prefetches committed
system.cpu1.commit.vec_insts                        0                       # Number of committed Vector instructions.
system.cpu1.committedInsts                   84582343                       # Number of Instructions Simulated
system.cpu1.committedOps                     86483537                       # Number of Ops (including micro ops) Simulated
system.cpu1.cpi                              5.669060                       # CPI: Cycles Per Instruction
system.cpu1.cpi_total                        5.669060                       # CPI: Total CPI of All Threads
system.cpu1.decode.BlockedCycles            411413042                       # Number of cycles decode is blocked
system.cpu1.decode.BranchMispred               280225                       # Number of times decode detected a branch misprediction
system.cpu1.decode.BranchResolved            13323685                       # Number of times decode resolved a branch
system.cpu1.decode.DecodedInsts             104476278                       # Number of instructions handled by decode
system.cpu1.decode.IdleCycles                17225408                       # Number of cycles decode is idle
system.cpu1.decode.RunCycles                 42614897                       # Number of cycles decode is running
system.cpu1.decode.SquashCycles               1448457                       # Number of cycles decode is squashing
system.cpu1.decode.SquashedInsts               754717                       # Number of squashed instructions handled by decode
system.cpu1.decode.UnblockCycles              4522743                       # Number of cycles decode is unblocking
system.cpu1.dtb.accesses                            0                       # DTB accesses
system.cpu1.dtb.hits                                0                       # DTB hits
system.cpu1.dtb.misses                              0                       # DTB misses
system.cpu1.dtb.read_accesses                       0                       # DTB read accesses
system.cpu1.dtb.read_hits                           0                       # DTB read hits
system.cpu1.dtb.read_misses                         0                       # DTB read misses
system.cpu1.dtb.write_accesses                      0                       # DTB write accesses
system.cpu1.dtb.write_hits                          0                       # DTB write hits
system.cpu1.dtb.write_misses                        0                       # DTB write misses
system.cpu1.fetch.Branches                   25865036                       # Number of branches that fetch encountered
system.cpu1.fetch.CacheLines                 15144749                       # Number of cache lines fetched
system.cpu1.fetch.Cycles                    457933791                       # Number of cycles fetch has run and was not squashing or blocked
system.cpu1.fetch.IcacheSquashes               349432                       # Number of outstanding Icache misses that were squashed
system.cpu1.fetch.IcacheWaitRetryStallCycles           34                       # Number of stall cycles due to full MSHR
system.cpu1.fetch.Insts                     107245829                       # Number of instructions fetch has processed
system.cpu1.fetch.MiscStallCycles                   4                       # Number of cycles fetch has spent waiting on interrupts, or bad addresses, or out of MSHRs
system.cpu1.fetch.SquashCycles                3440808                       # Number of cycles fetch has spent squashing
system.cpu1.fetch.branchRate                 0.053941                       # Number of branch fetches per cycle
system.cpu1.fetch.icacheStallCycles          17570314                       # Number of cycles fetch is stalled on an Icache miss
system.cpu1.fetch.predictedBranches          14700051                       # Number of branches that fetch has predicted taken
system.cpu1.fetch.rate                       0.223661                       # Number of inst fetches per cycle
system.cpu1.fetch.rateDist::samples         477224547                       # Number of instructions fetched each cycle (Total)
system.cpu1.fetch.rateDist::mean             0.228716                       # Number of instructions fetched each cycle (Total)
system.cpu1.fetch.rateDist::stdev            0.665593                       # Number of instructions fetched each cycle (Total)
system.cpu1.fetch.rateDist::underflows              0      0.00%      0.00% # Number of instructions fetched each cycle (Total)
system.cpu1.fetch.rateDist::0               409850553     85.88%     85.88% # Number of instructions fetched each cycle (Total)
system.cpu1.fetch.rateDist::1                40726309      8.53%     94.42% # Number of instructions fetched each cycle (Total)
system.cpu1.fetch.rateDist::2                16262623      3.41%     97.82% # Number of instructions fetched each cycle (Total)
system.cpu1.fetch.rateDist::3                 7150813      1.50%     99.32% # Number of instructions fetched each cycle (Total)
system.cpu1.fetch.rateDist::4                 2189983      0.46%     99.78% # Number of instructions fetched each cycle (Total)
system.cpu1.fetch.rateDist::5                  581280      0.12%     99.90% # Number of instructions fetched each cycle (Total)
system.cpu1.fetch.rateDist::6                  462688      0.10%    100.00% # Number of instructions fetched each cycle (Total)
system.cpu1.fetch.rateDist::7                      12      0.00%    100.00% # Number of instructions fetched each cycle (Total)
system.cpu1.fetch.rateDist::8                     286      0.00%    100.00% # Number of instructions fetched each cycle (Total)
system.cpu1.fetch.rateDist::overflows               0      0.00%    100.00% # Number of instructions fetched each cycle (Total)
system.cpu1.fetch.rateDist::min_value               0                       # Number of instructions fetched each cycle (Total)
system.cpu1.fetch.rateDist::max_value               8                       # Number of instructions fetched each cycle (Total)
system.cpu1.fetch.rateDist::total           477224547                       # Number of instructions fetched each cycle (Total)
system.cpu1.fp_regfile_reads                       12                       # number of floating regfile reads
system.cpu1.idleCycles                        2277817                       # Total number of cycles that the CPU has spent unscheduled due to idling
system.cpu1.iew.branchMispredicts             1542092                       # Number of branch mispredicts detected at execute
system.cpu1.iew.exec_branches                21971098                       # Number of branches executed
system.cpu1.iew.exec_nop                            0                       # number of nop insts executed
system.cpu1.iew.exec_rate                    0.197748                       # Inst execution rate
system.cpu1.iew.exec_refs                    34175785                       # number of memory reference insts executed
system.cpu1.iew.exec_stores                   8721064                       # Number of stores executed
system.cpu1.iew.exec_swp                            0                       # number of swp insts executed
system.cpu1.iew.iewBlockCycles              356418387                       # Number of cycles IEW is blocking
system.cpu1.iew.iewDispLoadInsts             26160396                       # Number of dispatched load instructions
system.cpu1.iew.iewDispNonSpecInsts           1901939                       # Number of dispatched non-speculative instructions
system.cpu1.iew.iewDispSquashedInsts          1503358                       # Number of squashed instructions skipped by dispatch
system.cpu1.iew.iewDispStoreInsts             9300685                       # Number of dispatched store instructions
system.cpu1.iew.iewDispatchedInsts           98802082                       # Number of instructions dispatched to IQ
system.cpu1.iew.iewExecLoadInsts             25454721                       # Number of load instructions executed
system.cpu1.iew.iewExecSquashedInsts          1379242                       # Number of squashed instructions skipped in execute
system.cpu1.iew.iewExecutedInsts             94820421                       # Number of executed instructions
system.cpu1.iew.iewIQFullEvents               1930232                       # Number of times the IQ has become full, causing a stall
system.cpu1.iew.iewIdleCycles                       0                       # Number of cycles IEW is idle
system.cpu1.iew.iewLSQFullEvents              4025093                       # Number of times the LSQ has become full, causing a stall
system.cpu1.iew.iewSquashCycles               1448457                       # Number of cycles IEW is squashing
system.cpu1.iew.iewUnblockCycles              8262820                       # Number of cycles IEW is unblocking
system.cpu1.iew.lsq.thread0.blockedLoads            0                       # Number of blocked loads due to partial load-store forwarding
system.cpu1.iew.lsq.thread0.cacheBlocked        65938                       # Number of times an access to memory failed due to the cache being blocked
system.cpu1.iew.lsq.thread0.forwLoads          844443                       # Number of loads that had data forwarded from stores
system.cpu1.iew.lsq.thread0.ignoredResponses        27740                       # Number of memory responses ignored because the instruction is squashed
system.cpu1.iew.lsq.thread0.invAddrLoads            0                       # Number of loads ignored due to an invalid address
system.cpu1.iew.lsq.thread0.invAddrSwpfs            0                       # Number of software prefetches ignored due to an invalid address
system.cpu1.iew.lsq.thread0.memOrderViolation         2976                       # Number of memory ordering violations
system.cpu1.iew.lsq.thread0.rescheduledLoads         6163                       # Number of loads that were rescheduled
system.cpu1.iew.lsq.thread0.squashedLoads      2934616                       # Number of loads squashed
system.cpu1.iew.lsq.thread0.squashedStores      1229710                       # Number of stores squashed
system.cpu1.iew.memOrderViolationEvents          2976                       # Number of memory order violations
system.cpu1.iew.predictedNotTakenIncorrect       539573                       # Number of branches that were predicted not taken incorrectly
system.cpu1.iew.predictedTakenIncorrect       1002519                       # Number of branches that were predicted taken incorrectly
system.cpu1.iew.wb_consumers                 52040322                       # num instructions consuming a value
system.cpu1.iew.wb_count                     93597696                       # cumulative count of insts written-back
system.cpu1.iew.wb_fanout                    0.819030                       # average fanout of values written-back
system.cpu1.iew.wb_producers                 42622562                       # num instructions producing a value
system.cpu1.iew.wb_rate                      0.195198                       # insts written-back per cycle
system.cpu1.iew.wb_sent                      93650394                       # cumulative count of insts sent to commit
system.cpu1.int_regfile_reads               119434068                       # number of integer regfile reads
system.cpu1.int_regfile_writes               61580347                       # number of integer regfile writes
system.cpu1.ipc                              0.176396                       # IPC: Instructions Per Cycle
system.cpu1.ipc_total                        0.176396                       # IPC: Total IPC of All Threads
system.cpu1.iq.FU_type_0::No_OpClass          3802280      3.95%      3.95% # Type of FU issued
system.cpu1.iq.FU_type_0::IntAlu             57747664     60.03%     63.98% # Type of FU issued
system.cpu1.iq.FU_type_0::IntMult                  59      0.00%     63.98% # Type of FU issued
system.cpu1.iq.FU_type_0::IntDiv                   90      0.00%     63.98% # Type of FU issued
system.cpu1.iq.FU_type_0::FloatAdd                  0      0.00%     63.98% # Type of FU issued
system.cpu1.iq.FU_type_0::FloatCmp                  0      0.00%     63.98% # Type of FU issued
system.cpu1.iq.FU_type_0::FloatCvt                  0      0.00%     63.98% # Type of FU issued
system.cpu1.iq.FU_type_0::FloatMult                 0      0.00%     63.98% # Type of FU issued
system.cpu1.iq.FU_type_0::FloatMultAcc              0      0.00%     63.98% # Type of FU issued
system.cpu1.iq.FU_type_0::FloatDiv                  0      0.00%     63.98% # Type of FU issued
system.cpu1.iq.FU_type_0::FloatMisc                 0      0.00%     63.98% # Type of FU issued
system.cpu1.iq.FU_type_0::FloatSqrt                 0      0.00%     63.98% # Type of FU issued
system.cpu1.iq.FU_type_0::SimdAdd                   0      0.00%     63.98% # Type of FU issued
system.cpu1.iq.FU_type_0::SimdAddAcc                0      0.00%     63.98% # Type of FU issued
system.cpu1.iq.FU_type_0::SimdAlu                   0      0.00%     63.98% # Type of FU issued
system.cpu1.iq.FU_type_0::SimdCmp                   0      0.00%     63.98% # Type of FU issued
system.cpu1.iq.FU_type_0::SimdCvt                   0      0.00%     63.98% # Type of FU issued
system.cpu1.iq.FU_type_0::SimdMisc                  0      0.00%     63.98% # Type of FU issued
system.cpu1.iq.FU_type_0::SimdMult                  0      0.00%     63.98% # Type of FU issued
system.cpu1.iq.FU_type_0::SimdMultAcc               0      0.00%     63.98% # Type of FU issued
system.cpu1.iq.FU_type_0::SimdShift                 0      0.00%     63.98% # Type of FU issued
system.cpu1.iq.FU_type_0::SimdShiftAcc              0      0.00%     63.98% # Type of FU issued
system.cpu1.iq.FU_type_0::SimdDiv                   0      0.00%     63.98% # Type of FU issued
system.cpu1.iq.FU_type_0::SimdSqrt                  0      0.00%     63.98% # Type of FU issued
system.cpu1.iq.FU_type_0::SimdFloatAdd              0      0.00%     63.98% # Type of FU issued
system.cpu1.iq.FU_type_0::SimdFloatAlu              0      0.00%     63.98% # Type of FU issued
system.cpu1.iq.FU_type_0::SimdFloatCmp              0      0.00%     63.98% # Type of FU issued
system.cpu1.iq.FU_type_0::SimdFloatCvt              0      0.00%     63.98% # Type of FU issued
system.cpu1.iq.FU_type_0::SimdFloatDiv              0      0.00%     63.98% # Type of FU issued
system.cpu1.iq.FU_type_0::SimdFloatMisc             0      0.00%     63.98% # Type of FU issued
system.cpu1.iq.FU_type_0::SimdFloatMult             0      0.00%     63.98% # Type of FU issued
system.cpu1.iq.FU_type_0::SimdFloatMultAcc            0      0.00%     63.98% # Type of FU issued
system.cpu1.iq.FU_type_0::SimdFloatSqrt             0      0.00%     63.98% # Type of FU issued
system.cpu1.iq.FU_type_0::SimdReduceAdd             0      0.00%     63.98% # Type of FU issued
system.cpu1.iq.FU_type_0::SimdReduceAlu             0      0.00%     63.98% # Type of FU issued
system.cpu1.iq.FU_type_0::SimdReduceCmp             0      0.00%     63.98% # Type of FU issued
system.cpu1.iq.FU_type_0::SimdFloatReduceAdd            0      0.00%     63.98% # Type of FU issued
system.cpu1.iq.FU_type_0::SimdFloatReduceCmp            0      0.00%     63.98% # Type of FU issued
system.cpu1.iq.FU_type_0::SimdAes                   0      0.00%     63.98% # Type of FU issued
system.cpu1.iq.FU_type_0::SimdAesMix                0      0.00%     63.98% # Type of FU issued
system.cpu1.iq.FU_type_0::SimdSha1Hash              0      0.00%     63.98% # Type of FU issued
system.cpu1.iq.FU_type_0::SimdSha1Hash2             0      0.00%     63.98% # Type of FU issued
system.cpu1.iq.FU_type_0::SimdSha256Hash            0      0.00%     63.98% # Type of FU issued
system.cpu1.iq.FU_type_0::SimdSha256Hash2            0      0.00%     63.98% # Type of FU issued
system.cpu1.iq.FU_type_0::SimdShaSigma2             0      0.00%     63.98% # Type of FU issued
system.cpu1.iq.FU_type_0::SimdShaSigma3             0      0.00%     63.98% # Type of FU issued
system.cpu1.iq.FU_type_0::SimdPredAlu               0      0.00%     63.98% # Type of FU issued
system.cpu1.iq.FU_type_0::MemRead            27714902     28.81%     92.79% # Type of FU issued
system.cpu1.iq.FU_type_0::MemWrite            6934656      7.21%    100.00% # Type of FU issued
system.cpu1.iq.FU_type_0::FloatMemRead              0      0.00%    100.00% # Type of FU issued
system.cpu1.iq.FU_type_0::FloatMemWrite            12      0.00%    100.00% # Type of FU issued
system.cpu1.iq.FU_type_0::IprAccess                 0      0.00%    100.00% # Type of FU issued
system.cpu1.iq.FU_type_0::InstPrefetch              0      0.00%    100.00% # Type of FU issued
system.cpu1.iq.FU_type_0::total              96199663                       # Type of FU issued
system.cpu1.iq.fp_alu_accesses                     16                       # Number of floating point alu accesses
system.cpu1.iq.fp_inst_queue_reads                 28                       # Number of floating instruction queue reads
system.cpu1.iq.fp_inst_queue_wakeup_accesses           12                       # Number of floating instruction queue wakeup accesses
system.cpu1.iq.fp_inst_queue_writes                12                       # Number of floating instruction queue writes
system.cpu1.iq.fu_busy_cnt                    2169804                       # FU busy when requested
system.cpu1.iq.fu_busy_rate                  0.022555                       # FU busy rate (busy events/executed inst)
system.cpu1.iq.fu_full::No_OpClass                  0      0.00%      0.00% # attempts to use FU when none available
system.cpu1.iq.fu_full::IntAlu                 357463     16.47%     16.47% # attempts to use FU when none available
system.cpu1.iq.fu_full::IntMult                     0      0.00%     16.47% # attempts to use FU when none available
system.cpu1.iq.fu_full::IntDiv                      0      0.00%     16.47% # attempts to use FU when none available
system.cpu1.iq.fu_full::FloatAdd                    0      0.00%     16.47% # attempts to use FU when none available
system.cpu1.iq.fu_full::FloatCmp                    0      0.00%     16.47% # attempts to use FU when none available
system.cpu1.iq.fu_full::FloatCvt                    0      0.00%     16.47% # attempts to use FU when none available
system.cpu1.iq.fu_full::FloatMult                   0      0.00%     16.47% # attempts to use FU when none available
system.cpu1.iq.fu_full::FloatMultAcc                0      0.00%     16.47% # attempts to use FU when none available
system.cpu1.iq.fu_full::FloatDiv                    0      0.00%     16.47% # attempts to use FU when none available
system.cpu1.iq.fu_full::FloatMisc                   0      0.00%     16.47% # attempts to use FU when none available
system.cpu1.iq.fu_full::FloatSqrt                   0      0.00%     16.47% # attempts to use FU when none available
system.cpu1.iq.fu_full::SimdAdd                     0      0.00%     16.47% # attempts to use FU when none available
system.cpu1.iq.fu_full::SimdAddAcc                  0      0.00%     16.47% # attempts to use FU when none available
system.cpu1.iq.fu_full::SimdAlu                     0      0.00%     16.47% # attempts to use FU when none available
system.cpu1.iq.fu_full::SimdCmp                     0      0.00%     16.47% # attempts to use FU when none available
system.cpu1.iq.fu_full::SimdCvt                     0      0.00%     16.47% # attempts to use FU when none available
system.cpu1.iq.fu_full::SimdMisc                    0      0.00%     16.47% # attempts to use FU when none available
system.cpu1.iq.fu_full::SimdMult                    0      0.00%     16.47% # attempts to use FU when none available
system.cpu1.iq.fu_full::SimdMultAcc                 0      0.00%     16.47% # attempts to use FU when none available
system.cpu1.iq.fu_full::SimdShift                   0      0.00%     16.47% # attempts to use FU when none available
system.cpu1.iq.fu_full::SimdShiftAcc                0      0.00%     16.47% # attempts to use FU when none available
system.cpu1.iq.fu_full::SimdDiv                     0      0.00%     16.47% # attempts to use FU when none available
system.cpu1.iq.fu_full::SimdSqrt                    0      0.00%     16.47% # attempts to use FU when none available
system.cpu1.iq.fu_full::SimdFloatAdd                0      0.00%     16.47% # attempts to use FU when none available
system.cpu1.iq.fu_full::SimdFloatAlu                0      0.00%     16.47% # attempts to use FU when none available
system.cpu1.iq.fu_full::SimdFloatCmp                0      0.00%     16.47% # attempts to use FU when none available
system.cpu1.iq.fu_full::SimdFloatCvt                0      0.00%     16.47% # attempts to use FU when none available
system.cpu1.iq.fu_full::SimdFloatDiv                0      0.00%     16.47% # attempts to use FU when none available
system.cpu1.iq.fu_full::SimdFloatMisc               0      0.00%     16.47% # attempts to use FU when none available
system.cpu1.iq.fu_full::SimdFloatMult               0      0.00%     16.47% # attempts to use FU when none available
system.cpu1.iq.fu_full::SimdFloatMultAcc            0      0.00%     16.47% # attempts to use FU when none available
system.cpu1.iq.fu_full::SimdFloatSqrt               0      0.00%     16.47% # attempts to use FU when none available
system.cpu1.iq.fu_full::SimdReduceAdd               0      0.00%     16.47% # attempts to use FU when none available
system.cpu1.iq.fu_full::SimdReduceAlu               0      0.00%     16.47% # attempts to use FU when none available
system.cpu1.iq.fu_full::SimdReduceCmp               0      0.00%     16.47% # attempts to use FU when none available
system.cpu1.iq.fu_full::SimdFloatReduceAdd            0      0.00%     16.47% # attempts to use FU when none available
system.cpu1.iq.fu_full::SimdFloatReduceCmp            0      0.00%     16.47% # attempts to use FU when none available
system.cpu1.iq.fu_full::SimdAes                     0      0.00%     16.47% # attempts to use FU when none available
system.cpu1.iq.fu_full::SimdAesMix                  0      0.00%     16.47% # attempts to use FU when none available
system.cpu1.iq.fu_full::SimdSha1Hash                0      0.00%     16.47% # attempts to use FU when none available
system.cpu1.iq.fu_full::SimdSha1Hash2               0      0.00%     16.47% # attempts to use FU when none available
system.cpu1.iq.fu_full::SimdSha256Hash              0      0.00%     16.47% # attempts to use FU when none available
system.cpu1.iq.fu_full::SimdSha256Hash2             0      0.00%     16.47% # attempts to use FU when none available
system.cpu1.iq.fu_full::SimdShaSigma2               0      0.00%     16.47% # attempts to use FU when none available
system.cpu1.iq.fu_full::SimdShaSigma3               0      0.00%     16.47% # attempts to use FU when none available
system.cpu1.iq.fu_full::SimdPredAlu                 0      0.00%     16.47% # attempts to use FU when none available
system.cpu1.iq.fu_full::MemRead               1601968     73.83%     90.30% # attempts to use FU when none available
[...]
system.cpu1.dcache.WriteReq_mshr_miss_rate::total     0.037987                       # mshr miss rate for WriteReq accesses
system.cpu1.dcache.WriteReq_avg_mshr_miss_latency::.cpu1.data 92971.808268                       # average WriteReq mshr miss latency
system.cpu1.dcache.WriteReq_avg_mshr_miss_latency::total 92971.808268                       # average WriteReq mshr miss latency
system.cpu1.dcache.LoadLockedReq_hits::.cpu1.data       124539                       # number of LoadLockedReq hits
system.cpu1.dcache.LoadLockedReq_hits::total       124539                       # number of LoadLockedReq hits
system.cpu1.dcache.LoadLockedReq_misses::.cpu1.data         1395                       # number of LoadLockedReq misses
system.cpu1.dcache.LoadLockedReq_misses::total         1395                       # number of LoadLockedReq misses
system.cpu1.dcache.LoadLockedReq_miss_latency::.cpu1.data     50102000                       # number of LoadLockedReq miss cycles
system.cpu1.dcache.LoadLockedReq_miss_latency::total     50102000                       # number of LoadLockedReq miss cycles
system.cpu1.dcache.LoadLockedReq_accesses::.cpu1.data       125934                       # number of LoadLockedReq accesses(hits+misses)
system.cpu1.dcache.LoadLockedReq_accesses::total       125934                       # number of LoadLockedReq accesses(hits+misses)
system.cpu1.dcache.LoadLockedReq_miss_rate::.cpu1.data     0.011077                       # miss rate for LoadLockedReq accesses
system.cpu1.dcache.LoadLockedReq_miss_rate::total     0.011077                       # miss rate for LoadLockedReq accesses
system.cpu1.dcache.LoadLockedReq_avg_miss_latency::.cpu1.data 35915.412186                       # average LoadLockedReq miss latency
system.cpu1.dcache.LoadLockedReq_avg_miss_latency::total 35915.412186                       # average LoadLockedReq miss latency
system.cpu1.dcache.LoadLockedReq_mshr_hits::.cpu1.data          592                       # number of LoadLockedReq MSHR hits
system.cpu1.dcache.LoadLockedReq_mshr_hits::total          592                       # number of LoadLockedReq MSHR hits
system.cpu1.dcache.LoadLockedReq_mshr_misses::.cpu1.data          803                       # number of LoadLockedReq MSHR misses
system.cpu1.dcache.LoadLockedReq_mshr_misses::total          803                       # number of LoadLockedReq MSHR misses
system.cpu1.dcache.LoadLockedReq_mshr_miss_latency::.cpu1.data     15149500                       # number of LoadLockedReq MSHR miss cycles
system.cpu1.dcache.LoadLockedReq_mshr_miss_latency::total     15149500                       # number of LoadLockedReq MSHR miss cycles
system.cpu1.dcache.LoadLockedReq_mshr_miss_rate::.cpu1.data     0.006376                       # mshr miss rate for LoadLockedReq accesses
system.cpu1.dcache.LoadLockedReq_mshr_miss_rate::total     0.006376                       # mshr miss rate for LoadLockedReq accesses
system.cpu1.dcache.LoadLockedReq_avg_mshr_miss_latency::.cpu1.data 18866.127024                       # average LoadLockedReq mshr miss latency
system.cpu1.dcache.LoadLockedReq_avg_mshr_miss_latency::total 18866.127024                       # average LoadLockedReq mshr miss latency
system.cpu1.dcache.StoreCondReq_hits::.cpu1.data       121998                       # number of StoreCondReq hits
system.cpu1.dcache.StoreCondReq_hits::total       121998                       # number of StoreCondReq hits
system.cpu1.dcache.StoreCondReq_misses::.cpu1.data         2702                       # number of StoreCondReq misses
system.cpu1.dcache.StoreCondReq_misses::total         2702                       # number of StoreCondReq misses
system.cpu1.dcache.StoreCondReq_miss_latency::.cpu1.data     24807000                       # number of StoreCondReq miss cycles
system.cpu1.dcache.StoreCondReq_miss_latency::total     24807000                       # number of StoreCondReq miss cycles
system.cpu1.dcache.StoreCondReq_accesses::.cpu1.data       124700                       # number of StoreCondReq accesses(hits+misses)
system.cpu1.dcache.StoreCondReq_accesses::total       124700                       # number of StoreCondReq accesses(hits+misses)
system.cpu1.dcache.StoreCondReq_miss_rate::.cpu1.data     0.021668                       # miss rate for StoreCondReq accesses
system.cpu1.dcache.StoreCondReq_miss_rate::total     0.021668                       # miss rate for StoreCondReq accesses
system.cpu1.dcache.StoreCondReq_avg_miss_latency::.cpu1.data  9180.977054                       # average StoreCondReq miss latency
system.cpu1.dcache.StoreCondReq_avg_miss_latency::total  9180.977054                       # average StoreCondReq miss latency
system.cpu1.dcache.StoreCondReq_mshr_misses::.cpu1.data         2656                       # number of StoreCondReq MSHR misses
system.cpu1.dcache.StoreCondReq_mshr_misses::total         2656                       # number of StoreCondReq MSHR misses
system.cpu1.dcache.StoreCondReq_mshr_miss_latency::.cpu1.data     22297000                       # number of StoreCondReq MSHR miss cycles
system.cpu1.dcache.StoreCondReq_mshr_miss_latency::total     22297000                       # number of StoreCondReq MSHR miss cycles
system.cpu1.dcache.StoreCondReq_mshr_miss_rate::.cpu1.data     0.021299                       # mshr miss rate for StoreCondReq accesses
system.cpu1.dcache.StoreCondReq_mshr_miss_rate::total     0.021299                       # mshr miss rate for StoreCondReq accesses
system.cpu1.dcache.StoreCondReq_avg_mshr_miss_latency::.cpu1.data  8394.954819                       # average StoreCondReq mshr miss latency
system.cpu1.dcache.StoreCondReq_avg_mshr_miss_latency::total  8394.954819                       # average StoreCondReq mshr miss latency
system.cpu1.dcache.StoreCondFailReq_miss_latency::.cpu1.data      4292000                       # number of StoreCondFailReq miss cycles
system.cpu1.dcache.StoreCondFailReq_miss_latency::total      4292000                       # number of StoreCondFailReq miss cycles
system.cpu1.dcache.StoreCondFailReq_avg_miss_latency::.cpu1.data          inf                       # average StoreCondFailReq miss latency
system.cpu1.dcache.StoreCondFailReq_avg_miss_latency::total          inf                       # average StoreCondFailReq miss latency
system.cpu1.dcache.StoreCondFailReq_mshr_miss_latency::.cpu1.data      4146000                       # number of StoreCondFailReq MSHR miss cycles
system.cpu1.dcache.StoreCondFailReq_mshr_miss_latency::total      4146000                       # number of StoreCondFailReq MSHR miss cycles
system.cpu1.dcache.StoreCondFailReq_avg_mshr_miss_latency::.cpu1.data          inf                       # average StoreCondFailReq mshr miss latency
system.cpu1.dcache.StoreCondFailReq_avg_mshr_miss_latency::total          inf                       # average StoreCondFailReq mshr miss latency
system.cpu1.dcache.SwapReq_hits::.cpu1.data         1270                       # number of SwapReq hits
system.cpu1.dcache.SwapReq_hits::total           1270                       # number of SwapReq hits
system.cpu1.dcache.SwapReq_misses::.cpu1.data         5234                       # number of SwapReq misses
system.cpu1.dcache.SwapReq_misses::total         5234                       # number of SwapReq misses
system.cpu1.dcache.SwapReq_miss_latency::.cpu1.data    154705998                       # number of SwapReq miss cycles
system.cpu1.dcache.SwapReq_miss_latency::total    154705998                       # number of SwapReq miss cycles
system.cpu1.dcache.SwapReq_accesses::.cpu1.data         6504                       # number of SwapReq accesses(hits+misses)
system.cpu1.dcache.SwapReq_accesses::total         6504                       # number of SwapReq accesses(hits+misses)
system.cpu1.dcache.SwapReq_miss_rate::.cpu1.data     0.804736                       # miss rate for SwapReq accesses
system.cpu1.dcache.SwapReq_miss_rate::total     0.804736                       # miss rate for SwapReq accesses
system.cpu1.dcache.SwapReq_avg_miss_latency::.cpu1.data 29557.890332                       # average SwapReq miss latency
system.cpu1.dcache.SwapReq_avg_miss_latency::total 29557.890332                       # average SwapReq miss latency
system.cpu1.dcache.SwapReq_mshr_misses::.cpu1.data         5234                       # number of SwapReq MSHR misses
system.cpu1.dcache.SwapReq_mshr_misses::total         5234                       # number of SwapReq MSHR misses
system.cpu1.dcache.SwapReq_mshr_miss_latency::.cpu1.data    149471998                       # number of SwapReq MSHR miss cycles
system.cpu1.dcache.SwapReq_mshr_miss_latency::total    149471998                       # number of SwapReq MSHR miss cycles
system.cpu1.dcache.SwapReq_mshr_miss_rate::.cpu1.data     0.804736                       # mshr miss rate for SwapReq accesses
system.cpu1.dcache.SwapReq_mshr_miss_rate::total     0.804736                       # mshr miss rate for SwapReq accesses
system.cpu1.dcache.SwapReq_avg_mshr_miss_latency::.cpu1.data 28557.890332                       # average SwapReq mshr miss latency
system.cpu1.dcache.SwapReq_avg_mshr_miss_latency::total 28557.890332                       # average SwapReq mshr miss latency
system.cpu1.dcache.tags.pwrStateResidencyTicks::UNDEFINED 151195434500                       # Cumulative time (in ticks) in various power states
system.cpu1.dcache.tags.tagsinuse           31.289893                       # Cycle average of tags in use
system.cpu1.dcache.tags.total_refs           25321229                       # Total number of references to valid blocks.
system.cpu1.dcache.tags.sampled_refs          2712795                       # Sample count of references to valid blocks.
system.cpu1.dcache.tags.avg_refs             9.334000                       # Average number of references to valid blocks.
system.cpu1.dcache.tags.warmup_cycle                0                       # Cycle when the warmup percentage was hit.
system.cpu1.dcache.tags.occ_blocks::.cpu1.data    31.289893                       # Average occupied blocks per requestor
system.cpu1.dcache.tags.occ_percent::.cpu1.data     0.977809                       # Average percentage of cache occupancy
system.cpu1.dcache.tags.occ_percent::total     0.977809                       # Average percentage of cache occupancy
system.cpu1.dcache.tags.occ_task_id_blocks::1024           28                       # Occupied blocks per task id
system.cpu1.dcache.tags.age_task_id_blocks_1024::1           28                       # Occupied blocks per task id
system.cpu1.dcache.tags.occ_task_id_percent::1024     0.875000                       # Percentage of cache occupancy per task id
system.cpu1.dcache.tags.tag_accesses         67720039                       # Number of tag accesses
system.cpu1.dcache.tags.data_accesses        67720039                       # Number of data accesses
system.cpu_clk_domain.clock                       500                       # Clock period in ticks
system.tol2bus.pwrStateResidencyTicks::UNDEFINED 151195434500                       # Cumulative time (in ticks) in various power states
system.tol2bus.trans_dist::ReadResp          10744746                       # Transaction distribution
system.tol2bus.trans_dist::ReadRespWithInvalidate           19                       # Transaction distribution
system.tol2bus.trans_dist::WritebackDirty      2132451                       # Transaction distribution
system.tol2bus.trans_dist::WritebackClean      9831429                       # Transaction distribution
system.tol2bus.trans_dist::CleanEvict        25657487                       # Transaction distribution
system.tol2bus.trans_dist::HardPFReq         20255325                       # Transaction distribution
system.tol2bus.trans_dist::HardPFResp               7                       # Transaction distribution
system.tol2bus.trans_dist::UpgradeReq           42709                       # Transaction distribution
system.tol2bus.trans_dist::SCUpgradeReq         12001                       # Transaction distribution
system.tol2bus.trans_dist::UpgradeResp          54710                       # Transaction distribution
system.tol2bus.trans_dist::SCUpgradeFailReq          474                       # Transaction distribution
system.tol2bus.trans_dist::UpgradeFailResp          474                       # Transaction distribution
system.tol2bus.trans_dist::ReadExReq           395072                       # Transaction distribution
system.tol2bus.trans_dist::ReadExResp          395072                       # Transaction distribution
system.tol2bus.trans_dist::ReadCleanReq        199582                       # Transaction distribution
system.tol2bus.trans_dist::ReadSharedReq     10545182                       # Transaction distribution
system.tol2bus.trans_dist::InvalidateReq         4057                       # Transaction distribution
system.tol2bus.trans_dist::InvalidateResp         4057                       # Transaction distribution
system.tol2bus.pkt_count_system.cpu0.icache.mem_side::system.l2.cpu_side       367337                       # Packet count per connected master and slave (bytes)
system.tol2bus.pkt_count_system.cpu0.dcache.mem_side::system.l2.cpu_side      8601108                       # Packet count per connected master and slave (bytes)
system.tol2bus.pkt_count_system.cpu1.icache.mem_side::system.l2.cpu_side        77949                       # Packet count per connected master and slave (bytes)
system.tol2bus.pkt_count_system.cpu1.dcache.mem_side::system.l2.cpu_side      8110244                       # Packet count per connected master and slave (bytes)
system.tol2bus.pkt_count_system.cpu2.icache.mem_side::system.l2.cpu_side        76254                       # Packet count per connected master and slave (bytes)
system.tol2bus.pkt_count_system.cpu2.dcache.mem_side::system.l2.cpu_side      7977879                       # Packet count per connected master and slave (bytes)
system.tol2bus.pkt_count_system.cpu3.icache.mem_side::system.l2.cpu_side        77208                       # Packet count per connected master and slave (bytes)
system.tol2bus.pkt_count_system.cpu3.dcache.mem_side::system.l2.cpu_side      8044768                       # Packet count per connected master and slave (bytes)
system.tol2bus.pkt_count::total              33332747                       # Packet count per connected master and slave (bytes)
system.tol2bus.pkt_size_system.cpu0.icache.mem_side::system.l2.cpu_side     15673088                       # Cumulative packet size per connected master and slave (bytes)
system.tol2bus.pkt_size_system.cpu0.dcache.mem_side::system.l2.cpu_side    365201984                       # Cumulative packet size per connected master and slave (bytes)
system.tol2bus.pkt_size_system.cpu1.icache.mem_side::system.l2.cpu_side      3325824                       # Cumulative packet size per connected master and slave (bytes)
system.tol2bus.pkt_size_system.cpu1.dcache.mem_side::system.l2.cpu_side    344369024                       # Cumulative packet size per connected master and slave (bytes)
system.tol2bus.pkt_size_system.cpu2.icache.mem_side::system.l2.cpu_side      3253504                       # Cumulative packet size per connected master and slave (bytes)
system.tol2bus.pkt_size_system.cpu2.dcache.mem_side::system.l2.cpu_side    338734592                       # Cumulative packet size per connected master and slave (bytes)
system.tol2bus.pkt_size_system.cpu3.icache.mem_side::system.l2.cpu_side      3294208                       # Cumulative packet size per connected master and slave (bytes)
system.tol2bus.pkt_size_system.cpu3.dcache.mem_side::system.l2.cpu_side    341758016                       # Cumulative packet size per connected master and slave (bytes)
system.tol2bus.pkt_size::total             1415610240                       # Cumulative packet size per connected master and slave (bytes)
system.tol2bus.snoops                        46942114                       # Total snoops (count)
system.tol2bus.snoopTraffic                  63058880                       # Total snoop traffic (bytes)
system.tol2bus.snoop_fanout::samples         59042773                       # Request fanout histogram
system.tol2bus.snoop_fanout::mean            0.239407                       # Request fanout histogram
system.tol2bus.snoop_fanout::stdev           0.573249                       # Request fanout histogram
system.tol2bus.snoop_fanout::underflows             0      0.00%      0.00% # Request fanout histogram
system.tol2bus.snoop_fanout::0               48001477     81.30%     81.30% # Request fanout histogram
system.tol2bus.snoop_fanout::1                8994547     15.23%     96.53% # Request fanout histogram
system.tol2bus.snoop_fanout::2                1183883      2.01%     98.54% # Request fanout histogram
system.tol2bus.snoop_fanout::3                 678510      1.15%     99.69% # Request fanout histogram
system.tol2bus.snoop_fanout::4                 184356      0.31%    100.00% # Request fanout histogram
system.tol2bus.snoop_fanout::5                      0      0.00%    100.00% # Request fanout histogram
system.tol2bus.snoop_fanout::6                      0      0.00%    100.00% # Request fanout histogram
system.tol2bus.snoop_fanout::7                      0      0.00%    100.00% # Request fanout histogram
system.tol2bus.snoop_fanout::8                      0      0.00%    100.00% # Request fanout histogram
system.tol2bus.snoop_fanout::overflows              0      0.00%    100.00% # Request fanout histogram
system.tol2bus.snoop_fanout::min_value              0                       # Request fanout histogram
system.tol2bus.snoop_fanout::max_value              4                       # Request fanout histogram
system.tol2bus.snoop_fanout::total           59042773                       # Request fanout histogram
system.tol2bus.reqLayer0.occupancy        23830664570                       # Layer occupancy (ticks)
system.tol2bus.reqLayer0.utilization             15.8                       # Layer utilization (%)
system.tol2bus.respLayer5.occupancy        4035760454                       # Layer occupancy (ticks)
system.tol2bus.respLayer5.utilization             2.7                       # Layer utilization (%)
system.tol2bus.respLayer4.occupancy          40405183                       # Layer occupancy (ticks)
system.tol2bus.respLayer4.utilization             0.0                       # Layer utilization (%)
system.tol2bus.respLayer7.occupancy        4067241478                       # Layer occupancy (ticks)
system.tol2bus.respLayer7.utilization             2.7                       # Layer utilization (%)
system.tol2bus.respLayer6.occupancy          40627198                       # Layer occupancy (ticks)
system.tol2bus.respLayer6.utilization             0.0                       # Layer utilization (%)
system.tol2bus.respLayer1.occupancy        4339621184                       # Layer occupancy (ticks)
system.tol2bus.respLayer1.utilization             2.9                       # Layer utilization (%)
system.tol2bus.respLayer0.occupancy         183948847                       # Layer occupancy (ticks)
system.tol2bus.respLayer0.utilization             0.1                       # Layer utilization (%)
system.tol2bus.respLayer3.occupancy        4102071006                       # Layer occupancy (ticks)
system.tol2bus.respLayer3.utilization             2.7                       # Layer utilization (%)
system.tol2bus.respLayer2.occupancy          41137798                       # Layer occupancy (ticks)
system.tol2bus.respLayer2.utilization             0.0                       # Layer utilization (%)
system.tol2bus.snoopLayer0.occupancy            10508                       # Layer occupancy (ticks)
system.tol2bus.snoopLayer0.utilization            0.0                       # Layer utilization (%)

---------- End Simulation Statistics   ----------
