
---------- Begin Simulation Statistics ----------
final_tick                               582800798000                       # Number of ticks from beginning of simulation (restored from checkpoints and never reset)
host_inst_rate                                  81677                       # Simulator instruction rate (inst/s)
host_mem_usage                                 701296                       # Number of bytes of host memory used
host_op_rate                                    81948                       # Simulator op (including micro ops) rate (op/s)
host_seconds                                  7499.63                       # Real time elapsed on the host
host_tick_rate                               77710576                       # Simulator tick rate (ticks/s)
sim_freq                                 1000000000000                       # Frequency of simulated ticks
sim_insts                                   612543922                       # Number of instructions simulated
sim_ops                                     614581519                       # Number of ops (including micro ops) simulated
sim_seconds                                  0.582801                       # Number of seconds simulated
sim_ticks                                582800798000                       # Number of ticks simulated
system.cpu0.branchPred.BTBCorrect                   0                       # Number of correct BTB predictions (this stat may not work properly.
system.cpu0.branchPred.BTBHitPct            84.938747                       # BTB Hit Percentage
system.cpu0.branchPred.BTBHits               77932037                       # Number of BTB hits
system.cpu0.branchPred.BTBLookups            91750867                       # Number of BTB lookups
system.cpu0.branchPred.RASInCorrect                 0                       # Number of incorrect RAS predictions.
system.cpu0.branchPred.condIncorrect          6821398                       # Number of conditional branches incorrect
system.cpu0.branchPred.condPredicted        123717728                       # Number of conditional branches predicted
system.cpu0.branchPred.indirectHits          12469064                       # Number of indirect target hits.
system.cpu0.branchPred.indirectLookups       12557484                       # Number of indirect predictor lookups.
system.cpu0.branchPred.indirectMisses           88420                       # Number of indirect misses.
system.cpu0.branchPred.lookups              159476194                       # Number of BP lookups
system.cpu0.branchPred.usedRAS                      0                       # Number of times the RAS was used to get a target.
system.cpu0.branchPredindirectMispredicted      1062053                       # Number of mispredicted indirect branches.
system.cpu0.commit.amos                       1018208                       # Number of atomic instructions committed
system.cpu0.commit.branchMispredicts          4824474                       # The number of times a branch was mispredicted
system.cpu0.commit.branches                 143205476                       # Number of branches committed
system.cpu0.commit.bw_lim_events             19897197                       # number cycles where commit BW limit reached
system.cpu0.commit.commitNonSpecStalls        3058516                       # The number of times commit has been forced to stall to communicate backwards
system.cpu0.commit.commitSquashedInsts       61878400                       # The number of squashed insts skipped by commit
system.cpu0.commit.committedInsts           580280838                       # Number of instructions committed
system.cpu0.commit.committedOps             581300333                       # Number of ops (including micro ops) committed
system.cpu0.commit.committed_per_cycle::samples   1032707813                       # Number of insts commited each cycle
system.cpu0.commit.committed_per_cycle::mean     0.562889                       # Number of insts commited each cycle
system.cpu0.commit.committed_per_cycle::stdev     1.393074                       # Number of insts commited each cycle
system.cpu0.commit.committed_per_cycle::underflows            0      0.00%      0.00% # Number of insts commited each cycle
system.cpu0.commit.committed_per_cycle::0    764061452     73.99%     73.99% # Number of insts commited each cycle
system.cpu0.commit.committed_per_cycle::1    159969019     15.49%     89.48% # Number of insts commited each cycle
system.cpu0.commit.committed_per_cycle::2     37447921      3.63%     93.10% # Number of insts commited each cycle
system.cpu0.commit.committed_per_cycle::3     33337261      3.23%     96.33% # Number of insts commited each cycle
system.cpu0.commit.committed_per_cycle::4     10968286      1.06%     97.39% # Number of insts commited each cycle
system.cpu0.commit.committed_per_cycle::5      1950077      0.19%     97.58% # Number of insts commited each cycle
system.cpu0.commit.committed_per_cycle::6      1913616      0.19%     97.77% # Number of insts commited each cycle
system.cpu0.commit.committed_per_cycle::7      3162984      0.31%     98.07% # Number of insts commited each cycle
system.cpu0.commit.committed_per_cycle::8     19897197      1.93%    100.00% # Number of insts commited each cycle
system.cpu0.commit.committed_per_cycle::overflows            0      0.00%    100.00% # Number of insts commited each cycle
system.cpu0.commit.committed_per_cycle::min_value            0                       # Number of insts commited each cycle
system.cpu0.commit.committed_per_cycle::max_value            8                       # Number of insts commited each cycle
system.cpu0.commit.committed_per_cycle::total   1032707813                       # Number of insts commited each cycle
system.cpu0.commit.fp_insts                        65                       # Number of committed floating point instructions.
system.cpu0.commit.function_calls            11887786                       # Number of function calls committed.
system.cpu0.commit.int_insts                561278305                       # Number of committed integer instructions.
system.cpu0.commit.loads                    179951610                       # Number of loads committed
system.cpu0.commit.membars                    2037590                       # Number of memory barriers committed
system.cpu0.commit.op_class_0::No_OpClass      2037599      0.35%      0.35% # Class of committed instruction
system.cpu0.commit.op_class_0::IntAlu       322226559     55.43%     55.78% # Class of committed instruction
system.cpu0.commit.op_class_0::IntMult        4135846      0.71%     56.49% # Class of committed instruction
system.cpu0.commit.op_class_0::IntDiv         1017777      0.18%     56.67% # Class of committed instruction
system.cpu0.commit.op_class_0::FloatAdd             0      0.00%     56.67% # Class of committed instruction
system.cpu0.commit.op_class_0::FloatCmp             6      0.00%     56.67% # Class of committed instruction
system.cpu0.commit.op_class_0::FloatCvt            16      0.00%     56.67% # Class of committed instruction
system.cpu0.commit.op_class_0::FloatMult            0      0.00%     56.67% # Class of committed instruction
system.cpu0.commit.op_class_0::FloatMultAcc            0      0.00%     56.67% # Class of committed instruction
system.cpu0.commit.op_class_0::FloatDiv             2      0.00%     56.67% # Class of committed instruction
system.cpu0.commit.op_class_0::FloatMisc            6      0.00%     56.67% # Class of committed instruction
system.cpu0.commit.op_class_0::FloatSqrt            0      0.00%     56.67% # Class of committed instruction
system.cpu0.commit.op_class_0::SimdAdd              0      0.00%     56.67% # Class of committed instruction
system.cpu0.commit.op_class_0::SimdAddAcc            0      0.00%     56.67% # Class of committed instruction
system.cpu0.commit.op_class_0::SimdAlu              0      0.00%     56.67% # Class of committed instruction
system.cpu0.commit.op_class_0::SimdCmp              0      0.00%     56.67% # Class of committed instruction
system.cpu0.commit.op_class_0::SimdCvt              0      0.00%     56.67% # Class of committed instruction
system.cpu0.commit.op_class_0::SimdMisc             0      0.00%     56.67% # Class of committed instruction
system.cpu0.commit.op_class_0::SimdMult             0      0.00%     56.67% # Class of committed instruction
system.cpu0.commit.op_class_0::SimdMultAcc            0      0.00%     56.67% # Class of committed instruction
system.cpu0.commit.op_class_0::SimdShift            0      0.00%     56.67% # Class of committed instruction
system.cpu0.commit.op_class_0::SimdShiftAcc            0      0.00%     56.67% # Class of committed instruction
system.cpu0.commit.op_class_0::SimdDiv              0      0.00%     56.67% # Class of committed instruction
system.cpu0.commit.op_class_0::SimdSqrt             0      0.00%     56.67% # Class of committed instruction
system.cpu0.commit.op_class_0::SimdFloatAdd            0      0.00%     56.67% # Class of committed instruction
system.cpu0.commit.op_class_0::SimdFloatAlu            0      0.00%     56.67% # Class of committed instruction
system.cpu0.commit.op_class_0::SimdFloatCmp            0      0.00%     56.67% # Class of committed instruction
system.cpu0.commit.op_class_0::SimdFloatCvt            0      0.00%     56.67% # Class of committed instruction
system.cpu0.commit.op_class_0::SimdFloatDiv            0      0.00%     56.67% # Class of committed instruction
system.cpu0.commit.op_class_0::SimdFloatMisc            0      0.00%     56.67% # Class of committed instruction
system.cpu0.commit.op_class_0::SimdFloatMult            0      0.00%     56.67% # Class of committed instruction
system.cpu0.commit.op_class_0::SimdFloatMultAcc            0      0.00%     56.67% # Class of committed instruction
system.cpu0.commit.op_class_0::SimdFloatSqrt            0      0.00%     56.67% # Class of committed instruction
system.cpu0.commit.op_class_0::SimdReduceAdd            0      0.00%     56.67% # Class of committed instruction
system.cpu0.commit.op_class_0::SimdReduceAlu            0      0.00%     56.67% # Class of committed instruction
system.cpu0.commit.op_class_0::SimdReduceCmp            0      0.00%     56.67% # Class of committed instruction
system.cpu0.commit.op_class_0::SimdFloatReduceAdd            0      0.00%     56.67% # Class of committed instruction
system.cpu0.commit.op_class_0::SimdFloatReduceCmp            0      0.00%     56.67% # Class of committed instruction
system.cpu0.commit.op_class_0::SimdAes              0      0.00%     56.67% # Class of committed instruction
system.cpu0.commit.op_class_0::SimdAesMix            0      0.00%     56.67% # Class of committed instruction
system.cpu0.commit.op_class_0::SimdSha1Hash            0      0.00%     56.67% # Class of committed instruction
system.cpu0.commit.op_class_0::SimdSha1Hash2            0      0.00%     56.67% # Class of committed instruction
system.cpu0.commit.op_class_0::SimdSha256Hash            0      0.00%     56.67% # Class of committed instruction
system.cpu0.commit.op_class_0::SimdSha256Hash2            0      0.00%     56.67% # Class of committed instruction
system.cpu0.commit.op_class_0::SimdShaSigma2            0      0.00%     56.67% # Class of committed instruction
system.cpu0.commit.op_class_0::SimdShaSigma3            0      0.00%     56.67% # Class of committed instruction
system.cpu0.commit.op_class_0::SimdPredAlu            0      0.00%     56.67% # Class of committed instruction
system.cpu0.commit.op_class_0::MemRead      180969806     31.13%     87.80% # Class of committed instruction
system.cpu0.commit.op_class_0::MemWrite      70912681     12.20%    100.00% # Class of committed instruction
system.cpu0.commit.op_class_0::FloatMemRead           12      0.00%    100.00% # Class of committed instruction
system.cpu0.commit.op_class_0::FloatMemWrite           23      0.00%    100.00% # Class of committed instruction
system.cpu0.commit.op_class_0::IprAccess            0      0.00%    100.00% # Class of committed instruction
system.cpu0.commit.op_class_0::InstPrefetch            0      0.00%    100.00% # Class of committed instruction
system.cpu0.commit.op_class_0::total        581300333                       # Class of committed instruction
system.cpu0.commit.refs                     251882522                       # Number of memory references committed
system.cpu0.commit.swp_count                        0                       # Number of s/w prefetches committed
system.cpu0.commit.vec_insts                        0                       # Number of committed Vector instructions.
system.cpu0.committedInsts                  580280838                       # Number of Instructions Simulated
system.cpu0.committedOps                    581300333                       # Number of Ops (including micro ops) Simulated
system.cpu0.cpi                              1.988781                       # CPI: Cycles Per Instruction
system.cpu0.cpi_total                        1.988781                       # CPI: Total CPI of All Threads
system.cpu0.decode.BlockedCycles            183417100                       # Number of cycles decode is blocked
system.cpu0.decode.BranchMispred              2006667                       # Number of times decode detected a branch misprediction
system.cpu0.decode.BranchResolved            77083700                       # Number of times decode resolved a branch
system.cpu0.decode.DecodedInsts             655539935                       # Number of instructions handled by decode
system.cpu0.decode.IdleCycles               394089144                       # Number of cycles decode is idle
system.cpu0.decode.RunCycles                457119145                       # Number of cycles decode is running
system.cpu0.decode.SquashCycles               4832516                       # Number of cycles decode is squashing
system.cpu0.decode.SquashedInsts              6940628                       # Number of squashed instructions handled by decode
system.cpu0.decode.UnblockCycles              3948884                       # Number of cycles decode is unblocking
system.cpu0.dtb.accesses                            0                       # DTB accesses
system.cpu0.dtb.hits                                0                       # DTB hits
system.cpu0.dtb.misses                              0                       # DTB misses
system.cpu0.dtb.read_accesses                       0                       # DTB read accesses
system.cpu0.dtb.read_hits                           0                       # DTB read hits
system.cpu0.dtb.read_misses                         0                       # DTB read misses
system.cpu0.dtb.write_accesses                      0                       # DTB write accesses
system.cpu0.dtb.write_hits                          0                       # DTB write hits
system.cpu0.dtb.write_misses                        0                       # DTB write misses
system.cpu0.fetch.Branches                  159476194                       # Number of branches that fetch encountered
system.cpu0.fetch.CacheLines                114039363                       # Number of cache lines fetched
system.cpu0.fetch.Cycles                    645491075                       # Number of cycles fetch has run and was not squashing or blocked
system.cpu0.fetch.IcacheSquashes              2639089                       # Number of outstanding Icache misses that were squashed
system.cpu0.fetch.IcacheWaitRetryStallCycles           86                       # Number of stall cycles due to full MSHR
system.cpu0.fetch.Insts                     667020439                       # Number of instructions fetch has processed
system.cpu0.fetch.MiscStallCycles                 156                       # Number of cycles fetch has spent waiting on interrupts, or bad addresses, or out of MSHRs
system.cpu0.fetch.PendingTrapStallCycles          735                       # Number of stall cycles due to pending traps
system.cpu0.fetch.SquashCycles               13659114                       # Number of cycles fetch has spent squashing
system.cpu0.fetch.branchRate                 0.138188                       # Number of branch fetches per cycle
system.cpu0.fetch.icacheStallCycles         391085180                       # Number of cycles fetch is stalled on an Icache miss
system.cpu0.fetch.predictedBranches          90401101                       # Number of branches that fetch has predicted taken
system.cpu0.fetch.rate                       0.577982                       # Number of inst fetches per cycle
system.cpu0.fetch.rateDist::samples        1043406789                       # Number of instructions fetched each cycle (Total)
system.cpu0.fetch.rateDist::mean             0.640250                       # Number of instructions fetched each cycle (Total)
system.cpu0.fetch.rateDist::stdev            0.881960                       # Number of instructions fetched each cycle (Total)
system.cpu0.fetch.rateDist::underflows              0      0.00%      0.00% # Number of instructions fetched each cycle (Total)
system.cpu0.fetch.rateDist::0               564068401     54.06%     54.06% # Number of instructions fetched each cycle (Total)
system.cpu0.fetch.rateDist::1               358037853     34.31%     88.37% # Number of instructions fetched each cycle (Total)
system.cpu0.fetch.rateDist::2                72922022      6.99%     95.36% # Number of instructions fetched each cycle (Total)
system.cpu0.fetch.rateDist::3                36618437      3.51%     98.87% # Number of instructions fetched each cycle (Total)
system.cpu0.fetch.rateDist::4                 6716369      0.64%     99.52% # Number of instructions fetched each cycle (Total)
system.cpu0.fetch.rateDist::5                 3853251      0.37%     99.89% # Number of instructions fetched each cycle (Total)
system.cpu0.fetch.rateDist::6                  164893      0.02%     99.90% # Number of instructions fetched each cycle (Total)
system.cpu0.fetch.rateDist::7                 1021805      0.10%    100.00% # Number of instructions fetched each cycle (Total)
system.cpu0.fetch.rateDist::8                    3758      0.00%    100.00% # Number of instructions fetched each cycle (Total)
system.cpu0.fetch.rateDist::overflows               0      0.00%    100.00% # Number of instructions fetched each cycle (Total)
system.cpu0.fetch.rateDist::min_value               0                       # Number of instructions fetched each cycle (Total)
system.cpu0.fetch.rateDist::max_value               8                       # Number of instructions fetched each cycle (Total)
system.cpu0.fetch.rateDist::total          1043406789                       # Number of instructions fetched each cycle (Total)
system.cpu0.fp_regfile_reads                       56                       # number of floating regfile reads
system.cpu0.fp_regfile_writes                      33                       # number of floating regfile writes
system.cpu0.idleCycles                      110644566                       # Total number of cycles that the CPU has spent unscheduled due to idling
system.cpu0.iew.branchMispredicts             4896234                       # Number of branch mispredicts detected at execute
system.cpu0.iew.exec_branches               150738165                       # Number of branches executed
system.cpu0.iew.exec_nop                            0                       # number of nop insts executed
system.cpu0.iew.exec_rate                    0.552162                       # Inst execution rate
system.cpu0.iew.exec_refs                   286150868                       # number of memory reference insts executed
system.cpu0.iew.exec_stores                  79971236                       # Number of stores executed
system.cpu0.iew.exec_swp                            0                       # number of swp insts executed
system.cpu0.iew.iewBlockCycles              151566551                       # Number of cycles IEW is blocking
system.cpu0.iew.iewDispLoadInsts            205629737                       # Number of dispatched load instructions
system.cpu0.iew.iewDispNonSpecInsts           1021638                       # Number of dispatched non-speculative instructions
system.cpu0.iew.iewDispSquashedInsts          2337893                       # Number of squashed instructions skipped by dispatch
system.cpu0.iew.iewDispStoreInsts            80926199                       # Number of dispatched store instructions
system.cpu0.iew.iewDispatchedInsts          643161669                       # Number of instructions dispatched to IQ
system.cpu0.iew.iewExecLoadInsts            206179632                       # Number of load instructions executed
system.cpu0.iew.iewExecSquashedInsts          3593711                       # Number of squashed instructions skipped in execute
system.cpu0.iew.iewExecutedInsts            637223571                       # Number of executed instructions
system.cpu0.iew.iewIQFullEvents                983571                       # Number of times the IQ has become full, causing a stall
system.cpu0.iew.iewIdleCycles                       0                       # Number of cycles IEW is idle
system.cpu0.iew.iewLSQFullEvents              3022746                       # Number of times the LSQ has become full, causing a stall
system.cpu0.iew.iewSquashCycles               4832516                       # Number of cycles IEW is squashing
system.cpu0.iew.iewUnblockCycles              5141901                       # Number of cycles IEW is unblocking
system.cpu0.iew.lsq.thread0.blockedLoads            0                       # Number of blocked loads due to partial load-store forwarding
system.cpu0.iew.lsq.thread0.cacheBlocked        81227                       # Number of times an access to memory failed due to the cache being blocked
system.cpu0.iew.lsq.thread0.forwLoads        11362456                       # Number of loads that had data forwarded from stores
system.cpu0.iew.lsq.thread0.ignoredResponses        29660                       # Number of memory responses ignored because the instruction is squashed
system.cpu0.iew.lsq.thread0.invAddrLoads            0                       # Number of loads ignored due to an invalid address
system.cpu0.iew.lsq.thread0.invAddrSwpfs            0                       # Number of software prefetches ignored due to an invalid address
system.cpu0.iew.lsq.thread0.memOrderViolation         8551                       # Number of memory ordering violations
system.cpu0.iew.lsq.thread0.rescheduledLoads      4121536                       # Number of loads that were rescheduled
system.cpu0.iew.lsq.thread0.squashedLoads     25678127                       # Number of loads squashed
system.cpu0.iew.lsq.thread0.squashedStores      8995287                       # Number of stores squashed
system.cpu0.iew.memOrderViolationEvents          8551                       # Number of memory order violations
system.cpu0.iew.predictedNotTakenIncorrect       851162                       # Number of branches that were predicted not taken incorrectly
system.cpu0.iew.predictedTakenIncorrect       4045072                       # Number of branches that were predicted taken incorrectly
system.cpu0.iew.wb_consumers                270151311                       # num instructions consuming a value
system.cpu0.iew.wb_count                    629708076                       # cumulative count of insts written-back
system.cpu0.iew.wb_fanout                    0.851187                       # average fanout of values written-back
system.cpu0.iew.wb_producers                229949302                       # num instructions producing a value
system.cpu0.iew.wb_rate                      0.545650                       # insts written-back per cycle
system.cpu0.iew.wb_sent                     629799436                       # cumulative count of insts sent to commit
system.cpu0.int_regfile_reads               775639447                       # number of integer regfile reads
system.cpu0.int_regfile_writes              403649886                       # number of integer regfile writes
system.cpu0.ipc                              0.502821                       # IPC: Instructions Per Cycle
system.cpu0.ipc_total                        0.502821                       # IPC: Total IPC of All Threads
system.cpu0.iq.FU_type_0::No_OpClass          2038581      0.32%      0.32% # Type of FU issued
system.cpu0.iq.FU_type_0::IntAlu            346094980     54.01%     54.33% # Type of FU issued
system.cpu0.iq.FU_type_0::IntMult             4139598      0.65%     54.97% # Type of FU issued
system.cpu0.iq.FU_type_0::IntDiv              1018075      0.16%     55.13% # Type of FU issued
system.cpu0.iq.FU_type_0::FloatAdd                  0      0.00%     55.13% # Type of FU issued
system.cpu0.iq.FU_type_0::FloatCmp                  6      0.00%     55.13% # Type of FU issued
system.cpu0.iq.FU_type_0::FloatCvt                 16      0.00%     55.13% # Type of FU issued
system.cpu0.iq.FU_type_0::FloatMult                 0      0.00%     55.13% # Type of FU issued
system.cpu0.iq.FU_type_0::FloatMultAcc              0      0.00%     55.13% # Type of FU issued
system.cpu0.iq.FU_type_0::FloatDiv                  2      0.00%     55.13% # Type of FU issued
system.cpu0.iq.FU_type_0::FloatMisc                 6      0.00%     55.13% # Type of FU issued
system.cpu0.iq.FU_type_0::FloatSqrt                 0      0.00%     55.13% # Type of FU issued
system.cpu0.iq.FU_type_0::SimdAdd                   0      0.00%     55.13% # Type of FU issued
system.cpu0.iq.FU_type_0::SimdAddAcc                0      0.00%     55.13% # Type of FU issued
system.cpu0.iq.FU_type_0::SimdAlu                   0      0.00%     55.13% # Type of FU issued
system.cpu0.iq.FU_type_0::SimdCmp                   0      0.00%     55.13% # Type of FU issued
system.cpu0.iq.FU_type_0::SimdCvt                   0      0.00%     55.13% # Type of FU issued
system.cpu0.iq.FU_type_0::SimdMisc                  0      0.00%     55.13% # Type of FU issued
system.cpu0.iq.FU_type_0::SimdMult                  0      0.00%     55.13% # Type of FU issued
system.cpu0.iq.FU_type_0::SimdMultAcc               0      0.00%     55.13% # Type of FU issued
system.cpu0.iq.FU_type_0::SimdShift                 0      0.00%     55.13% # Type of FU issued
system.cpu0.iq.FU_type_0::SimdShiftAcc              0      0.00%     55.13% # Type of FU issued
system.cpu0.iq.FU_type_0::SimdDiv                   0      0.00%     55.13% # Type of FU issued
system.cpu0.iq.FU_type_0::SimdSqrt                  0      0.00%     55.13% # Type of FU issued
system.cpu0.iq.FU_type_0::SimdFloatAdd              0      0.00%     55.13% # Type of FU issued
system.cpu0.iq.FU_type_0::SimdFloatAlu              0      0.00%     55.13% # Type of FU issued
system.cpu0.iq.FU_type_0::SimdFloatCmp              0      0.00%     55.13% # Type of FU issued
system.cpu0.iq.FU_type_0::SimdFloatCvt              0      0.00%     55.13% # Type of FU issued
system.cpu0.iq.FU_type_0::SimdFloatDiv              0      0.00%     55.13% # Type of FU issued
system.cpu0.iq.FU_type_0::SimdFloatMisc             0      0.00%     55.13% # Type of FU issued
system.cpu0.iq.FU_type_0::SimdFloatMult             0      0.00%     55.13% # Type of FU issued
system.cpu0.iq.FU_type_0::SimdFloatMultAcc            0      0.00%     55.13% # Type of FU issued
system.cpu0.iq.FU_type_0::SimdFloatSqrt             0      0.00%     55.13% # Type of FU issued
system.cpu0.iq.FU_type_0::SimdReduceAdd             0      0.00%     55.13% # Type of FU issued
system.cpu0.iq.FU_type_0::SimdReduceAlu             0      0.00%     55.13% # Type of FU issued
system.cpu0.iq.FU_type_0::SimdReduceCmp             0      0.00%     55.13% # Type of FU issued
system.cpu0.iq.FU_type_0::SimdFloatReduceAdd            0      0.00%     55.13% # Type of FU issued
system.cpu0.iq.FU_type_0::SimdFloatReduceCmp            0      0.00%     55.13% # Type of FU issued
system.cpu0.iq.FU_type_0::SimdAes                   0      0.00%     55.13% # Type of FU issued
system.cpu0.iq.FU_type_0::SimdAesMix                0      0.00%     55.13% # Type of FU issued
system.cpu0.iq.FU_type_0::SimdSha1Hash              0      0.00%     55.13% # Type of FU issued
system.cpu0.iq.FU_type_0::SimdSha1Hash2             0      0.00%     55.13% # Type of FU issued
system.cpu0.iq.FU_type_0::SimdSha256Hash            0      0.00%     55.13% # Type of FU issued
system.cpu0.iq.FU_type_0::SimdSha256Hash2            0      0.00%     55.13% # Type of FU issued
system.cpu0.iq.FU_type_0::SimdShaSigma2             0      0.00%     55.13% # Type of FU issued
system.cpu0.iq.FU_type_0::SimdShaSigma3             0      0.00%     55.13% # Type of FU issued
system.cpu0.iq.FU_type_0::SimdPredAlu               0      0.00%     55.13% # Type of FU issued
system.cpu0.iq.FU_type_0::MemRead           208299524     32.51%     87.64% # Type of FU issued
system.cpu0.iq.FU_type_0::MemWrite           79226458     12.36%    100.00% # Type of FU issued
system.cpu0.iq.FU_type_0::FloatMemRead             14      0.00%    100.00% # Type of FU issued
system.cpu0.iq.FU_type_0::FloatMemWrite            23      0.00%    100.00% # Type of FU issued
system.cpu0.iq.FU_type_0::IprAccess                 0      0.00%    100.00% # Type of FU issued
system.cpu0.iq.FU_type_0::InstPrefetch              0      0.00%    100.00% # Type of FU issued
system.cpu0.iq.FU_type_0::total             640817283                       # Type of FU issued
system.cpu0.iq.fp_alu_accesses                     70                       # Number of floating point alu accesses
system.cpu0.iq.fp_inst_queue_reads                137                       # Number of floating instruction queue reads
system.cpu0.iq.fp_inst_queue_wakeup_accesses           67                       # Number of floating instruction queue wakeup accesses
system.cpu0.iq.fp_inst_queue_writes                85                       # Number of floating instruction queue writes
system.cpu0.iq.fu_busy_cnt                    1335500                       # FU busy when requested
system.cpu0.iq.fu_busy_rate                  0.002084                       # FU busy rate (busy events/executed inst)
system.cpu0.iq.fu_full::No_OpClass                  0      0.00%      0.00% # attempts to use FU when none available
system.cpu0.iq.fu_full::IntAlu                 263060     19.70%     19.70% # attempts to use FU when none available
system.cpu0.iq.fu_full::IntMult                     0      0.00%     19.70% # attempts to use FU when none available
system.cpu0.iq.fu_full::IntDiv                      0      0.00%     19.70% # attempts to use FU when none available
system.cpu0.iq.fu_full::FloatAdd                    0      0.00%     19.70% # attempts to use FU when none available
system.cpu0.iq.fu_full::FloatCmp                    0      0.00%     19.70% # attempts to use FU when none available
system.cpu0.iq.fu_full::FloatCvt                    0      0.00%     19.70% # attempts to use FU when none available
system.cpu0.iq.fu_full::FloatMult                   0      0.00%     19.70% # attempts to use FU when none available
system.cpu0.iq.fu_full::FloatMultAcc                0      0.00%     19.70% # attempts to use FU when none available
system.cpu0.iq.fu_full::FloatDiv                    0      0.00%     19.70% # attempts to use FU when none available
system.cpu0.iq.fu_full::FloatMisc                   0      0.00%     19.70% # attempts to use FU when none available
system.cpu0.iq.fu_full::FloatSqrt                   0      0.00%     19.70% # attempts to use FU when none available
system.cpu0.iq.fu_full::SimdAdd                     0      0.00%     19.70% # attempts to use FU when none available
system.cpu0.iq.fu_full::SimdAddAcc                  0      0.00%     19.70% # attempts to use FU when none available
system.cpu0.iq.fu_full::SimdAlu                     0      0.00%     19.70% # attempts to use FU when none available
system.cpu0.iq.fu_full::SimdCmp                     0      0.00%     19.70% # attempts to use FU when none available
system.cpu0.iq.fu_full::SimdCvt                     0      0.00%     19.70% # attempts to use FU when none available
system.cpu0.iq.fu_full::SimdMisc                    0      0.00%     19.70% # attempts to use FU when none available
system.cpu0.iq.fu_full::SimdMult                    0      0.00%     19.70% # attempts to use FU when none available
system.cpu0.iq.fu_full::SimdMultAcc                 0      0.00%     19.70% # attempts to use FU when none available
system.cpu0.iq.fu_full::SimdShift                   0      0.00%     19.70% # attempts to use FU when none available
system.cpu0.iq.fu_full::SimdShiftAcc                0      0.00%     19.70% # attempts to use FU when none available
system.cpu0.iq.fu_full::SimdDiv                     0      0.00%     19.70% # attempts to use FU when none available
system.cpu0.iq.fu_full::SimdSqrt                    0      0.00%     19.70% # attempts to use FU when none available
system.cpu0.iq.fu_full::SimdFloatAdd                0      0.00%     19.70% # attempts to use FU when none available
system.cpu0.iq.fu_full::SimdFloatAlu                0      0.00%     19.70% # attempts to use FU when none available
system.cpu0.iq.fu_full::SimdFloatCmp                0      0.00%     19.70% # attempts to use FU when none available
system.cpu0.iq.fu_full::SimdFloatCvt                0      0.00%     19.70% # attempts to use FU when none available
system.cpu0.iq.fu_full::SimdFloatDiv                0      0.00%     19.70% # attempts to use FU when none available
system.cpu0.iq.fu_full::SimdFloatMisc               0      0.00%     19.70% # attempts to use FU when none available
system.cpu0.iq.fu_full::SimdFloatMult               0      0.00%     19.70% # attempts to use FU when none available
system.cpu0.iq.fu_full::SimdFloatMultAcc            0      0.00%     19.70% # attempts to use FU when none available
system.cpu0.iq.fu_full::SimdFloatSqrt               0      0.00%     19.70% # attempts to use FU when none available
system.cpu0.iq.fu_full::SimdReduceAdd               0      0.00%     19.70% # attempts to use FU when none available
system.cpu0.iq.fu_full::SimdReduceAlu               0      0.00%     19.70% # attempts to use FU when none available
system.cpu0.iq.fu_full::SimdReduceCmp               0      0.00%     19.70% # attempts to use FU when none available
system.cpu0.iq.fu_full::SimdFloatReduceAdd            0      0.00%     19.70% # attempts to use FU when none available
system.cpu0.iq.fu_full::SimdFloatReduceCmp            0      0.00%     19.70% # attempts to use FU when none available
system.cpu0.iq.fu_full::SimdAes                     0      0.00%     19.70% # attempts to use FU when none available
system.cpu0.iq.fu_full::SimdAesMix                  0      0.00%     19.70% # attempts to use FU when none available
system.cpu0.iq.fu_full::SimdSha1Hash                0      0.00%     19.70% # attempts to use FU when none available
system.cpu0.iq.fu_full::SimdSha1Hash2               0      0.00%     19.70% # attempts to use FU when none available
system.cpu0.iq.fu_full::SimdSha256Hash              0      0.00%     19.70% # attempts to use FU when none available
system.cpu0.iq.fu_full::SimdSha256Hash2             0      0.00%     19.70% # attempts to use FU when none available
system.cpu0.iq.fu_full::SimdShaSigma2               0      0.00%     19.70% # attempts to use FU when none available
system.cpu0.iq.fu_full::SimdShaSigma3               0      0.00%     19.70% # attempts to use FU when none available
system.cpu0.iq.fu_full::SimdPredAlu                 0      0.00%     19.70% # attempts to use FU when none available
system.cpu0.iq.fu_full::MemRead                923655     69.16%     88.86% # attempts to use FU when none available
system.cpu0.iq.fu_full::MemWrite               148782     11.14%    100.00% # attempts to use FU when none available
system.cpu0.iq.fu_full::FloatMemRead                0      0.00%    100.00% # attempts to use FU when none available
system.cpu0.iq.fu_full::FloatMemWrite               3      0.00%    100.00% # attempts to use FU when none available
system.cpu0.iq.fu_full::IprAccess                   0      0.00%    100.00% # attempts to use FU when none available
system.cpu0.iq.fu_full::InstPrefetch                0      0.00%    100.00% # attempts to use FU when none available
system.cpu0.iq.int_alu_accesses             640114132                       # Number of integer alu accesses
system.cpu0.iq.int_inst_queue_reads        2326466867                       # Number of integer instruction queue reads
system.cpu0.iq.int_inst_queue_wakeup_accesses    629708009                       # Number of integer instruction queue wakeup accesses
system.cpu0.iq.int_inst_queue_writes        705030528                       # Number of integer instruction queue writes
system.cpu0.iq.iqInstsAdded                 640102230                       # Number of instructions added to the IQ (excludes non-spec)
system.cpu0.iq.iqInstsIssued                640817283                       # Number of instructions issued
system.cpu0.iq.iqNonSpecInstsAdded            3059439                       # Number of non-speculative instructions added to the IQ
system.cpu0.iq.iqSquashedInstsExamined       61861332                       # Number of squashed instructions iterated over during squash; mainly for profiling
system.cpu0.iq.iqSquashedInstsIssued            90150                       # Number of squashed instructions issued
system.cpu0.iq.iqSquashedNonSpecRemoved           923                       # Number of squashed non-spec instructions that were removed
system.cpu0.iq.iqSquashedOperandsExamined     13497201                       # Number of squashed operands that are examined and possibly removed from graph
system.cpu0.iq.issued_per_cycle::samples   1043406789                       # Number of insts issued each cycle
system.cpu0.iq.issued_per_cycle::mean        0.614159                       # Number of insts issued each cycle
system.cpu0.iq.issued_per_cycle::stdev       0.821110                       # Number of insts issued each cycle
system.cpu0.iq.issued_per_cycle::underflows            0      0.00%      0.00% # Number of insts issued each cycle
system.cpu0.iq.issued_per_cycle::0          580103072     55.60%     55.60% # Number of insts issued each cycle
system.cpu0.iq.issued_per_cycle::1          322197836     30.88%     86.48% # Number of insts issued each cycle
system.cpu0.iq.issued_per_cycle::2          114308688     10.96%     97.43% # Number of insts issued each cycle
system.cpu0.iq.issued_per_cycle::3           20448628      1.96%     99.39% # Number of insts issued each cycle
system.cpu0.iq.issued_per_cycle::4            4045549      0.39%     99.78% # Number of insts issued each cycle
system.cpu0.iq.issued_per_cycle::5            1635475      0.16%     99.94% # Number of insts issued each cycle
system.cpu0.iq.issued_per_cycle::6             448648      0.04%     99.98% # Number of insts issued each cycle
system.cpu0.iq.issued_per_cycle::7             146416      0.01%     99.99% # Number of insts issued each cycle
system.cpu0.iq.issued_per_cycle::8              72477      0.01%    100.00% # Number of insts issued each cycle
system.cpu0.iq.issued_per_cycle::overflows            0      0.00%    100.00% # Number of insts issued each cycle
system.cpu0.iq.issued_per_cycle::min_value            0                       # Number of insts issued each cycle
system.cpu0.iq.issued_per_cycle::max_value            8                       # Number of insts issued each cycle
system.cpu0.iq.issued_per_cycle::total     1043406789                       # Number of insts issued each cycle
system.cpu0.iq.rate                          0.555276                       # Inst issue rate
system.cpu0.iq.vec_alu_accesses                     0                       # Number of vector alu accesses
system.cpu0.iq.vec_inst_queue_reads                 0                       # Number of vector instruction queue reads
system.cpu0.iq.vec_inst_queue_wakeup_accesses            0                       # Number of vector instruction queue wakeup accesses
system.cpu0.iq.vec_inst_queue_writes                0                       # Number of vector instruction queue writes
system.cpu0.itb.accesses                            0                       # DTB accesses
system.cpu0.itb.hits                                0                       # DTB hits
system.cpu0.itb.misses                              0                       # DTB misses
system.cpu0.itb.read_accesses                       0                       # DTB read accesses
system.cpu0.itb.read_hits                           0                       # DTB read hits
system.cpu0.itb.read_misses                         0                       # DTB read misses
system.cpu0.itb.write_accesses                      0                       # DTB write accesses
system.cpu0.itb.write_hits                          0                       # DTB write hits
system.cpu0.itb.write_misses                        0                       # DTB write misses
system.cpu0.memDep0.conflictingLoads          9698758                       # Number of conflicting loads.
system.cpu0.memDep0.conflictingStores         2061771                       # Number of conflicting stores.
system.cpu0.memDep0.insertedLoads           205629737                       # Number of loads inserted to the mem dependence unit.
system.cpu0.memDep0.insertedStores           80926199                       # Number of stores inserted to the mem dependence unit.
system.cpu0.misc_regfile_reads                    898                       # number of misc regfile reads
system.cpu0.misc_regfile_writes                    30                       # number of misc regfile writes
system.cpu0.numCycles                      1154051355                       # number of cpu cycles simulated
system.cpu0.numWorkItemsCompleted                   0                       # number of work items this cpu completed
system.cpu0.numWorkItemsStarted                     0                       # number of work items this cpu started
system.cpu0.quiesceCycles                    11550982                       # Total number of cycles that CPU has spent quiesced or waiting for an interrupt
system.cpu0.rename.BlockCycles              163895343                       # Number of cycles rename is blocking
system.cpu0.rename.CommittedMaps            370566930                       # Number of HB maps that are committed
system.cpu0.rename.IQFullEvents               6854237                       # Number of times rename has blocked due to IQ full
system.cpu0.rename.IdleCycles               399633643                       # Number of cycles rename is idle
system.cpu0.rename.LQFullEvents               5114672                       # Number of times rename has blocked due to LQ full
system.cpu0.rename.ROBFullEvents                11657                       # Number of times rename has blocked due to ROB full
system.cpu0.rename.RenameLookups            792902826                       # Number of register rename lookups that rename has made
system.cpu0.rename.RenamedInsts             650426424                       # Number of instructions processed by rename
system.cpu0.rename.RenamedOperands          418529486                       # Number of destination operands rename has renamed
system.cpu0.rename.RunCycles                454949616                       # Number of cycles rename is running
system.cpu0.rename.SQFullEvents               7699533                       # Number of times rename has blocked due to SQ full
system.cpu0.rename.SquashCycles               4832516                       # Number of cycles rename is squashing
system.cpu0.rename.UnblockCycles             19920260                       # Number of cycles rename is unblocking
system.cpu0.rename.UndoneMaps                47962551                       # Number of HB maps that are undone due to squashing
system.cpu0.rename.fp_rename_lookups               56                       # Number of floating rename lookups
system.cpu0.rename.int_rename_lookups       792902770                       # Number of integer rename lookups
system.cpu0.rename.serializeStallCycles        175411                       # count of cycles rename stalled for serializing inst
system.cpu0.rename.serializingInsts              2836                       # count of serializing insts renamed
system.cpu0.rename.skidInsts                 14408910                       # count of insts added to the skid buffer
system.cpu0.rename.tempSerializingInsts          2833                       # count of temporary serializing insts renamed
system.cpu0.rob.rob_reads                  1655978299                       # The number of ROB reads
system.cpu0.rob.rob_writes                 1297067163                       # The number of ROB writes
system.cpu0.timesIdled                       12186069                       # Number of times that the entire CPU went into an idle state and unscheduled itself
system.cpu0.workload.numSyscalls                  854                       # Number of system calls
system.cpu1.branchPred.BTBCorrect                   0                       # Number of correct BTB predictions (this stat may not work properly.
system.cpu1.branchPred.BTBHitPct            88.752932                       # BTB Hit Percentage
system.cpu1.branchPred.BTBHits                4540024                       # Number of BTB hits
system.cpu1.branchPred.BTBLookups             5115351                       # Number of BTB lookups
system.cpu1.branchPred.RASInCorrect                 0                       # Number of incorrect RAS predictions.
system.cpu1.branchPred.condIncorrect           801610                       # Number of conditional branches incorrect
system.cpu1.branchPred.condPredicted          7798261                       # Number of conditional branches predicted
system.cpu1.branchPred.indirectHits            265394                       # Number of indirect target hits.
system.cpu1.branchPred.indirectLookups         392910                       # Number of indirect predictor lookups.
system.cpu1.branchPred.indirectMisses          127516                       # Number of indirect misses.
system.cpu1.branchPred.lookups                8773445                       # Number of BP lookups
system.cpu1.branchPred.usedRAS                      0                       # Number of times the RAS was used to get a target.
system.cpu1.branchPredindirectMispredicted         3175                       # Number of mispredicted indirect branches.
system.cpu1.commit.amos                       1017928                       # Number of atomic instructions committed
system.cpu1.commit.branchMispredicts           476190                       # The number of times a branch was mispredicted
system.cpu1.commit.branches                   7095556                       # Number of branches committed
system.cpu1.commit.bw_lim_events               822624                       # number cycles where commit BW limit reached
system.cpu1.commit.commitNonSpecStalls        3054450                       # The number of times commit has been forced to stall to communicate backwards
system.cpu1.commit.commitSquashedInsts        4416775                       # The number of squashed insts skipped by commit
system.cpu1.commit.committedInsts            32263084                       # Number of instructions committed
system.cpu1.commit.committedOps              33281186                       # Number of ops (including micro ops) committed
system.cpu1.commit.committed_per_cycle::samples    191351848                       # Number of insts commited each cycle
system.cpu1.commit.committed_per_cycle::mean     0.173927                       # Number of insts commited each cycle
system.cpu1.commit.committed_per_cycle::stdev     0.830347                       # Number of insts commited each cycle
system.cpu1.commit.committed_per_cycle::underflows            0      0.00%      0.00% # Number of insts commited each cycle
system.cpu1.commit.committed_per_cycle::0    177633344     92.83%     92.83% # Number of insts commited each cycle
system.cpu1.commit.committed_per_cycle::1      6895635      3.60%     96.43% # Number of insts commited each cycle
system.cpu1.commit.committed_per_cycle::2      2254177      1.18%     97.61% # Number of insts commited each cycle
system.cpu1.commit.committed_per_cycle::3      2013789      1.05%     98.66% # Number of insts commited each cycle
system.cpu1.commit.committed_per_cycle::4       520582      0.27%     98.94% # Number of insts commited each cycle
system.cpu1.commit.committed_per_cycle::5       177946      0.09%     99.03% # Number of insts commited each cycle
system.cpu1.commit.committed_per_cycle::6       953477      0.50%     99.53% # Number of insts commited each cycle
system.cpu1.commit.committed_per_cycle::7        80274      0.04%     99.57% # Number of insts commited each cycle
system.cpu1.commit.committed_per_cycle::8       822624      0.43%    100.00% # Number of insts commited each cycle
system.cpu1.commit.committed_per_cycle::overflows            0      0.00%    100.00% # Number of insts commited each cycle
system.cpu1.commit.committed_per_cycle::min_value            0                       # Number of insts commited each cycle
system.cpu1.commit.committed_per_cycle::max_value            8                       # Number of insts commited each cycle
system.cpu1.commit.committed_per_cycle::total    191351848                       # Number of insts commited each cycle
system.cpu1.commit.fp_insts                        12                       # Number of committed floating point instructions.
system.cpu1.commit.function_calls              320822                       # Number of function calls committed.
system.cpu1.commit.int_insts                 31047847                       # Number of committed integer instructions.
system.cpu1.commit.loads                      9248583                       # Number of loads committed
system.cpu1.commit.membars                    2035978                       # Number of memory barriers committed
system.cpu1.commit.op_class_0::No_OpClass      2035978      6.12%      6.12% # Class of committed instruction
system.cpu1.commit.op_class_0::IntAlu        19082713     57.34%     63.46% # Class of committed instruction
system.cpu1.commit.op_class_0::IntMult             42      0.00%     63.46% # Class of committed instruction
system.cpu1.commit.op_class_0::IntDiv              84      0.00%     63.46% # Class of committed instruction
system.cpu1.commit.op_class_0::FloatAdd             0      0.00%     63.46% # Class of committed instruction
system.cpu1.commit.op_class_0::FloatCmp             0      0.00%     63.46% # Class of committed instruction
system.cpu1.commit.op_class_0::FloatCvt             0      0.00%     63.46% # Class of committed instruction
system.cpu1.commit.op_class_0::FloatMult            0      0.00%     63.46% # Class of committed instruction
system.cpu1.commit.op_class_0::FloatMultAcc            0      0.00%     63.46% # Class of committed instruction
system.cpu1.commit.op_class_0::FloatDiv             0      0.00%     63.46% # Class of committed instruction
system.cpu1.commit.op_class_0::FloatMisc            0      0.00%     63.46% # Class of committed instruction
system.cpu1.commit.op_class_0::FloatSqrt            0      0.00%     63.46% # Class of committed instruction
system.cpu1.commit.op_class_0::SimdAdd              0      0.00%     63.46% # Class of committed instruction
system.cpu1.commit.op_class_0::SimdAddAcc            0      0.00%     63.46% # Class of committed instruction
system.cpu1.commit.op_class_0::SimdAlu              0      0.00%     63.46% # Class of committed instruction
system.cpu1.commit.op_class_0::SimdCmp              0      0.00%     63.46% # Class of committed instruction
system.cpu1.commit.op_class_0::SimdCvt              0      0.00%     63.46% # Class of committed instruction
system.cpu1.commit.op_class_0::SimdMisc             0      0.00%     63.46% # Class of committed instruction
system.cpu1.commit.op_class_0::SimdMult             0      0.00%     63.46% # Class of committed instruction
system.cpu1.commit.op_class_0::SimdMultAcc            0      0.00%     63.46% # Class of committed instruction
system.cpu1.commit.op_class_0::SimdShift            0      0.00%     63.46% # Class of committed instruction
system.cpu1.commit.op_class_0::SimdShiftAcc            0      0.00%     63.46% # Class of committed instruction
system.cpu1.commit.op_class_0::SimdDiv              0      0.00%     63.46% # Class of committed instruction
system.cpu1.commit.op_class_0::SimdSqrt             0      0.00%     63.46% # Class of committed instruction
system.cpu1.commit.op_class_0::SimdFloatAdd            0      0.00%     63.46% # Class of committed instruction
system.cpu1.commit.op_class_0::SimdFloatAlu            0      0.00%     63.46% # Class of committed instruction
system.cpu1.commit.op_class_0::SimdFloatCmp            0      0.00%     63.46% # Class of committed instruction
system.cpu1.commit.op_class_0::SimdFloatCvt            0      0.00%     63.46% # Class of committed instruction
system.cpu1.commit.op_class_0::SimdFloatDiv            0      0.00%     63.46% # Class of committed instruction
system.cpu1.commit.op_class_0::SimdFloatMisc            0      0.00%     63.46% # Class of committed instruction
system.cpu1.commit.op_class_0::SimdFloatMult            0      0.00%     63.46% # Class of committed instruction
system.cpu1.commit.op_class_0::SimdFloatMultAcc            0      0.00%     63.46% # Class of committed instruction
system.cpu1.commit.op_class_0::SimdFloatSqrt            0      0.00%     63.46% # Class of committed instruction
system.cpu1.commit.op_class_0::SimdReduceAdd            0      0.00%     63.46% # Class of committed instruction
system.cpu1.commit.op_class_0::SimdReduceAlu            0      0.00%     63.46% # Class of committed instruction
system.cpu1.commit.op_class_0::SimdReduceCmp            0      0.00%     63.46% # Class of committed instruction
system.cpu1.commit.op_class_0::SimdFloatReduceAdd            0      0.00%     63.46% # Class of committed instruction
system.cpu1.commit.op_class_0::SimdFloatReduceCmp            0      0.00%     63.46% # Class of committed instruction
system.cpu1.commit.op_class_0::SimdAes              0      0.00%     63.46% # Class of committed instruction
system.cpu1.commit.op_class_0::SimdAesMix            0      0.00%     63.46% # Class of committed instruction
system.cpu1.commit.op_class_0::SimdSha1Hash            0      0.00%     63.46% # Class of committed instruction
system.cpu1.commit.op_class_0::SimdSha1Hash2            0      0.00%     63.46% # Class of committed instruction
system.cpu1.commit.op_class_0::SimdSha256Hash            0      0.00%     63.46% # Class of committed instruction
system.cpu1.commit.op_class_0::SimdSha256Hash2            0      0.00%     63.46% # Class of committed instruction
system.cpu1.commit.op_class_0::SimdShaSigma2            0      0.00%     63.46% # Class of committed instruction
system.cpu1.commit.op_class_0::SimdShaSigma3            0      0.00%     63.46% # Class of committed instruction
system.cpu1.commit.op_class_0::SimdPredAlu            0      0.00%     63.46% # Class of committed instruction
system.cpu1.commit.op_class_0::MemRead       10266511     30.85%     94.30% # Class of committed instruction
system.cpu1.commit.op_class_0::MemWrite       1895846      5.70%    100.00% # Class of committed instruction
system.cpu1.commit.op_class_0::FloatMemRead            0      0.00%    100.00% # Class of committed instruction
system.cpu1.commit.op_class_0::FloatMemWrite           12      0.00%    100.00% # Class of committed instruction
system.cpu1.commit.op_class_0::IprAccess            0      0.00%    100.00% # Class of committed instruction
system.cpu1.commit.op_class_0::InstPrefetch            0      0.00%    100.00% # Class of committed instruction
system.cpu1.commit.op_class_0::total         33281186                       # Class of committed instruction
system.cpu1.commit.refs                      12162369                       # Number of memory references committed
system.cpu1.commit.swp_count                        0                       # Number of s/w prefetches committed
system.cpu1.commit.vec_insts                        0                       # Number of committed Vector instructions.
system.cpu1.committedInsts                   32263084                       # Number of Instructions Simulated
system.cpu1.committedOps                     33281186                       # Number of Ops (including micro ops) Simulated
system.cpu1.cpi                              5.965579                       # CPI: Cycles Per Instruction
system.cpu1.cpi_total                        5.965579                       # CPI: Total CPI of All Threads
system.cpu1.decode.BlockedCycles            171473701                       # Number of cycles decode is blocked
system.cpu1.decode.BranchMispred               328713                       # Number of times decode detected a branch misprediction
system.cpu1.decode.BranchResolved             4363923                       # Number of times decode resolved a branch
system.cpu1.decode.DecodedInsts              39685909                       # Number of instructions handled by decode
system.cpu1.decode.IdleCycles                 5361863                       # Number of cycles decode is idle
system.cpu1.decode.RunCycles                 12579849                       # Number of cycles decode is running
system.cpu1.decode.SquashCycles                476411                       # Number of cycles decode is squashing
system.cpu1.decode.SquashedInsts               604644                       # Number of squashed instructions handled by decode
system.cpu1.decode.UnblockCycles              2317030                       # Number of cycles decode is unblocking
system.cpu1.dtb.accesses                            0                       # DTB accesses
system.cpu1.dtb.hits                                0                       # DTB hits
system.cpu1.dtb.misses                              0                       # DTB misses
system.cpu1.dtb.read_accesses                       0                       # DTB read accesses
system.cpu1.dtb.read_hits                           0                       # DTB read hits
system.cpu1.dtb.read_misses                         0                       # DTB read misses
system.cpu1.dtb.write_accesses                      0                       # DTB write accesses
system.cpu1.dtb.write_hits                          0                       # DTB write hits
system.cpu1.dtb.write_misses                        0                       # DTB write misses
system.cpu1.fetch.Branches                    8773445                       # Number of branches that fetch encountered
system.cpu1.fetch.CacheLines                  4995450                       # Number of cache lines fetched
system.cpu1.fetch.Cycles                    185913963                       # Number of cycles fetch has run and was not squashing or blocked
system.cpu1.fetch.IcacheSquashes                55829                       # Number of outstanding Icache misses that were squashed
system.cpu1.fetch.Insts                      40503860                       # Number of instructions fetch has processed
system.cpu1.fetch.MiscStallCycles                   1                       # Number of cycles fetch has spent waiting on interrupts, or bad addresses, or out of MSHRs
system.cpu1.fetch.SquashCycles                1603662                       # Number of cycles fetch has spent squashing
system.cpu1.fetch.branchRate                 0.045584                       # Number of branch fetches per cycle
system.cpu1.fetch.icacheStallCycles           5493059                       # Number of cycles fetch is stalled on an Icache miss
system.cpu1.fetch.predictedBranches           4805418                       # Number of branches that fetch has predicted taken
system.cpu1.fetch.rate                       0.210445                       # Number of inst fetches per cycle
system.cpu1.fetch.rateDist::samples         192208854                       # Number of instructions fetched each cycle (Total)
system.cpu1.fetch.rateDist::mean             0.216027                       # Number of instructions fetched each cycle (Total)
system.cpu1.fetch.rateDist::stdev            0.655304                       # Number of instructions fetched each cycle (Total)
system.cpu1.fetch.rateDist::underflows              0      0.00%      0.00% # Number of instructions fetched each cycle (Total)
system.cpu1.fetch.rateDist::0               167123251     86.95%     86.95% # Number of instructions fetched each cycle (Total)
system.cpu1.fetch.rateDist::1                14786677      7.69%     94.64% # Number of instructions fetched each cycle (Total)
system.cpu1.fetch.rateDist::2                 6022914      3.13%     97.78% # Number of instructions fetched each cycle (Total)
system.cpu1.fetch.rateDist::3                 2890637      1.50%     99.28% # Number of instructions fetched each cycle (Total)
system.cpu1.fetch.rateDist::4                  988978      0.51%     99.79% # Number of instructions fetched each cycle (Total)
system.cpu1.fetch.rateDist::5                  316717      0.16%     99.96% # Number of instructions fetched each cycle (Total)
system.cpu1.fetch.rateDist::6                   79482      0.04%    100.00% # Number of instructions fetched each cycle (Total)
system.cpu1.fetch.rateDist::7                      57      0.00%    100.00% # Number of instructions fetched each cycle (Total)
system.cpu1.fetch.rateDist::8                     141      0.00%    100.00% # Number of instructions fetched each cycle (Total)
system.cpu1.fetch.rateDist::overflows               0      0.00%    100.00% # Number of instructions fetched each cycle (Total)
system.cpu1.fetch.rateDist::min_value               0                       # Number of instructions fetched each cycle (Total)
system.cpu1.fetch.rateDist::max_value               8                       # Number of instructions fetched each cycle (Total)
system.cpu1.fetch.rateDist::total           192208854                       # Number of instructions fetched each cycle (Total)
system.cpu1.fp_regfile_reads                       12                       # number of floating regfile reads
system.cpu1.idleCycles                         259136                       # Total number of cycles that the CPU has spent unscheduled due to idling
system.cpu1.iew.branchMispredicts              508301                       # Number of branch mispredicts detected at execute
system.cpu1.iew.exec_branches                 7728082                       # Number of branches executed
system.cpu1.iew.exec_nop                            0                       # number of nop insts executed
system.cpu1.iew.exec_rate                    0.188798                       # Inst execution rate
system.cpu1.iew.exec_refs                    12966553                       # number of memory reference insts executed
system.cpu1.iew.exec_stores                   2944252                       # Number of stores executed
system.cpu1.iew.exec_swp                            0                       # number of swp insts executed
system.cpu1.iew.iewBlockCycles              148644568                       # Number of cycles IEW is blocking
system.cpu1.iew.iewDispLoadInsts             10091428                       # Number of dispatched load instructions
system.cpu1.iew.iewDispNonSpecInsts           1018634                       # Number of dispatched non-speculative instructions
system.cpu1.iew.iewDispSquashedInsts           578685                       # Number of squashed instructions skipped by dispatch
system.cpu1.iew.iewDispStoreInsts             2976917                       # Number of dispatched store instructions
system.cpu1.iew.iewDispatchedInsts           37690303                       # Number of instructions dispatched to IQ
system.cpu1.iew.iewExecLoadInsts             10022301                       # Number of load instructions executed
system.cpu1.iew.iewExecSquashedInsts           571260                       # Number of squashed instructions skipped in execute
system.cpu1.iew.iewExecutedInsts             36337482                       # Number of executed instructions
system.cpu1.iew.iewIQFullEvents                750047                       # Number of times the IQ has become full, causing a stall
system.cpu1.iew.iewIdleCycles                       0                       # Number of cycles IEW is idle
system.cpu1.iew.iewLSQFullEvents              1388680                       # Number of times the LSQ has become full, causing a stall
system.cpu1.iew.iewSquashCycles                476411                       # Number of cycles IEW is squashing
system.cpu1.iew.iewUnblockCycles              3387977                       # Number of cycles IEW is unblocking
system.cpu1.iew.lsq.thread0.blockedLoads            0                       # Number of blocked loads due to partial load-store forwarding
system.cpu1.iew.lsq.thread0.cacheBlocked        17144                       # Number of times an access to memory failed due to the cache being blocked
system.cpu1.iew.lsq.thread0.forwLoads          157223                       # Number of loads that had data forwarded from stores
system.cpu1.iew.lsq.thread0.ignoredResponses         4908                       # Number of memory responses ignored because the instruction is squashed
system.cpu1.iew.lsq.thread0.invAddrLoads            0                       # Number of loads ignored due to an invalid address
system.cpu1.iew.lsq.thread0.invAddrSwpfs            0                       # Number of software prefetches ignored due to an invalid address
system.cpu1.iew.lsq.thread0.memOrderViolation          167                       # Number of memory ordering violations
system.cpu1.iew.lsq.thread0.rescheduledLoads          389                       # Number of loads that were rescheduled
system.cpu1.iew.lsq.thread0.squashedLoads       842845                       # Number of loads squashed
system.cpu1.iew.lsq.thread0.squashedStores        63131                       # Number of stores squashed
system.cpu1.iew.memOrderViolationEvents           167                       # Number of memory order violations
system.cpu1.iew.predictedNotTakenIncorrect        91676                       # Number of branches that were predicted not taken incorrectly
system.cpu1.iew.predictedTakenIncorrect        416625                       # Number of branches that were predicted taken incorrectly
system.cpu1.iew.wb_consumers                 21346956                       # num instructions consuming a value
system.cpu1.iew.wb_count                     36066837                       # cumulative count of insts written-back
system.cpu1.iew.wb_fanout                    0.866431                       # average fanout of values written-back
system.cpu1.iew.wb_producers                 18495667                       # num instructions producing a value
system.cpu1.iew.wb_rate                      0.187391                       # insts written-back per cycle
system.cpu1.iew.wb_sent                      36076145                       # cumulative count of insts sent to commit
system.cpu1.int_regfile_reads                44669937                       # number of integer regfile reads
system.cpu1.int_regfile_writes               24582334                       # number of integer regfile writes
system.cpu1.ipc                              0.167628                       # IPC: Instructions Per Cycle
system.cpu1.ipc_total                        0.167628                       # IPC: Total IPC of All Threads
system.cpu1.iq.FU_type_0::No_OpClass          2036086      5.52%      5.52% # Type of FU issued
system.cpu1.iq.FU_type_0::IntAlu             21835056     59.16%     64.68% # Type of FU issued
system.cpu1.iq.FU_type_0::IntMult                  45      0.00%     64.68% # Type of FU issued
system.cpu1.iq.FU_type_0::IntDiv                   84      0.00%     64.68% # Type of FU issued
system.cpu1.iq.FU_type_0::FloatAdd                  0      0.00%     64.68% # Type of FU issued
system.cpu1.iq.FU_type_0::FloatCmp                  0      0.00%     64.68% # Type of FU issued
system.cpu1.iq.FU_type_0::FloatCvt                  0      0.00%     64.68% # Type of FU issued
system.cpu1.iq.FU_type_0::FloatMult                 0      0.00%     64.68% # Type of FU issued
system.cpu1.iq.FU_type_0::FloatMultAcc              0      0.00%     64.68% # Type of FU issued
system.cpu1.iq.FU_type_0::FloatDiv                  0      0.00%     64.68% # Type of FU issued
system.cpu1.iq.FU_type_0::FloatMisc                 0      0.00%     64.68% # Type of FU issued
system.cpu1.iq.FU_type_0::FloatSqrt                 0      0.00%     64.68% # Type of FU issued
system.cpu1.iq.FU_type_0::SimdAdd                   0      0.00%     64.68% # Type of FU issued
system.cpu1.iq.FU_type_0::SimdAddAcc                0      0.00%     64.68% # Type of FU issued
system.cpu1.iq.FU_type_0::SimdAlu                   0      0.00%     64.68% # Type of FU issued
system.cpu1.iq.FU_type_0::SimdCmp                   0      0.00%     64.68% # Type of FU issued
system.cpu1.iq.FU_type_0::SimdCvt                   0      0.00%     64.68% # Type of FU issued
system.cpu1.iq.FU_type_0::SimdMisc                  0      0.00%     64.68% # Type of FU issued
system.cpu1.iq.FU_type_0::SimdMult                  0      0.00%     64.68% # Type of FU issued
system.cpu1.iq.FU_type_0::SimdMultAcc               0      0.00%     64.68% # Type of FU issued
system.cpu1.iq.FU_type_0::SimdShift                 0      0.00%     64.68% # Type of FU issued
system.cpu1.iq.FU_type_0::SimdShiftAcc              0      0.00%     64.68% # Type of FU issued
system.cpu1.iq.FU_type_0::SimdDiv                   0      0.00%     64.68% # Type of FU issued
system.cpu1.iq.FU_type_0::SimdSqrt                  0      0.00%     64.68% # Type of FU issued
system.cpu1.iq.FU_type_0::SimdFloatAdd              0      0.00%     64.68% # Type of FU issued
system.cpu1.iq.FU_type_0::SimdFloatAlu              0      0.00%     64.68% # Type of FU issued
system.cpu1.iq.FU_type_0::SimdFloatCmp              0      0.00%     64.68% # Type of FU issued
system.cpu1.iq.FU_type_0::SimdFloatCvt              0      0.00%     64.68% # Type of FU issued
system.cpu1.iq.FU_type_0::SimdFloatDiv              0      0.00%     64.68% # Type of FU issued
system.cpu1.iq.FU_type_0::SimdFloatMisc             0      0.00%     64.68% # Type of FU issued
system.cpu1.iq.FU_type_0::SimdFloatMult             0      0.00%     64.68% # Type of FU issued
system.cpu1.iq.FU_type_0::SimdFloatMultAcc            0      0.00%     64.68% # Type of FU issued
system.cpu1.iq.FU_type_0::SimdFloatSqrt             0      0.00%     64.68% # Type of FU issued
system.cpu1.iq.FU_type_0::SimdReduceAdd             0      0.00%     64.68% # Type of FU issued
system.cpu1.iq.FU_type_0::SimdReduceAlu             0      0.00%     64.68% # Type of FU issued
system.cpu1.iq.FU_type_0::SimdReduceCmp             0      0.00%     64.68% # Type of FU issued
system.cpu1.iq.FU_type_0::SimdFloatReduceAdd            0      0.00%     64.68% # Type of FU issued
system.cpu1.iq.FU_type_0::SimdFloatReduceCmp            0      0.00%     64.68% # Type of FU issued
system.cpu1.iq.FU_type_0::SimdAes                   0      0.00%     64.68% # Type of FU issued
system.cpu1.iq.FU_type_0::SimdAesMix                0      0.00%     64.68% # Type of FU issued
system.cpu1.iq.FU_type_0::SimdSha1Hash              0      0.00%     64.68% # Type of FU issued
system.cpu1.iq.FU_type_0::SimdSha1Hash2             0      0.00%     64.68% # Type of FU issued
system.cpu1.iq.FU_type_0::SimdSha256Hash            0      0.00%     64.68% # Type of FU issued
system.cpu1.iq.FU_type_0::SimdSha256Hash2            0      0.00%     64.68% # Type of FU issued
system.cpu1.iq.FU_type_0::SimdShaSigma2             0      0.00%     64.68% # Type of FU issued
system.cpu1.iq.FU_type_0::SimdShaSigma3             0      0.00%     64.68% # Type of FU issued
system.cpu1.iq.FU_type_0::SimdPredAlu               0      0.00%     64.68% # Type of FU issued
system.cpu1.iq.FU_type_0::MemRead            11103254     30.08%     94.76% # Type of FU issued
system.cpu1.iq.FU_type_0::MemWrite            1934205      5.24%    100.00% # Type of FU issued
system.cpu1.iq.FU_type_0::FloatMemRead              0      0.00%    100.00% # Type of FU issued
system.cpu1.iq.FU_type_0::FloatMemWrite            12      0.00%    100.00% # Type of FU issued
system.cpu1.iq.FU_type_0::IprAccess                 0      0.00%    100.00% # Type of FU issued
system.cpu1.iq.FU_type_0::InstPrefetch              0      0.00%    100.00% # Type of FU issued
system.cpu1.iq.FU_type_0::total              36908742                       # Type of FU issued
system.cpu1.iq.fp_alu_accesses                     15                       # Number of floating point alu accesses
system.cpu1.iq.fp_inst_queue_reads                 27                       # Number of floating instruction queue reads
system.cpu1.iq.fp_inst_queue_wakeup_accesses           12                       # Number of floating instruction queue wakeup accesses
system.cpu1.iq.fp_inst_queue_writes                12                       # Number of floating instruction queue writes
system.cpu1.iq.fu_busy_cnt                    1112427                       # FU busy when requested
system.cpu1.iq.fu_busy_rate                  0.030140                       # FU busy rate (busy events/executed inst)
system.cpu1.iq.fu_full::No_OpClass                  0      0.00%      0.00% # attempts to use FU when none available
system.cpu1.iq.fu_full::IntAlu                 215419     19.36%     19.36% # attempts to use FU when none available
system.cpu1.iq.fu_full::IntMult                     0      0.00%     19.36% # attempts to use FU when none available
system.cpu1.iq.fu_full::IntDiv                      0      0.00%     19.36% # attempts to use FU when none available
system.cpu1.iq.fu_full::FloatAdd                    0      0.00%     19.36% # attempts to use FU when none available
system.cpu1.iq.fu_full::FloatCmp                    0      0.00%     19.36% # attempts to use FU when none available
system.cpu1.iq.fu_full::FloatCvt                    0      0.00%     19.36% # attempts to use FU when none available
system.cpu1.iq.fu_full::FloatMult                   0      0.00%     19.36% # attempts to use FU when none available
system.cpu1.iq.fu_full::FloatMultAcc                0      0.00%     19.36% # attempts to use FU when none available
system.cpu1.iq.fu_full::FloatDiv                    0      0.00%     19.36% # attempts to use FU when none available
system.cpu1.iq.fu_full::FloatMisc                   0      0.00%     19.36% # attempts to use FU when none available
system.cpu1.iq.fu_full::FloatSqrt                   0      0.00%     19.36% # attempts to use FU when none available
system.cpu1.iq.fu_full::SimdAdd                     0      0.00%     19.36% # attempts to use FU when none available
system.cpu1.iq.fu_full::SimdAddAcc                  0      0.00%     19.36% # attempts to use FU when none available
system.cpu1.iq.fu_full::SimdAlu                     0      0.00%     19.36% # attempts to use FU when none available
system.cpu1.iq.fu_full::SimdCmp                     0      0.00%     19.36% # attempts to use FU when none available
system.cpu1.iq.fu_full::SimdCvt                     0      0.00%     19.36% # attempts to use FU when none available
system.cpu1.iq.fu_full::SimdMisc                    0      0.00%     19.36% # attempts to use FU when none available
system.cpu1.iq.fu_full::SimdMult                    0      0.00%     19.36% # attempts to use FU when none available
system.cpu1.iq.fu_full::SimdMultAcc                 0      0.00%     19.36% # attempts to use FU when none available
system.cpu1.iq.fu_full::SimdShift                   0      0.00%     19.36% # attempts to use FU when none available
system.cpu1.iq.fu_full::SimdShiftAcc                0      0.00%     19.36% # attempts to use FU when none available
system.cpu1.iq.fu_full::SimdDiv                     0      0.00%     19.36% # attempts to use FU when none available
system.cpu1.iq.fu_full::SimdSqrt                    0      0.00%     19.36% # attempts to use FU when none available
system.cpu1.iq.fu_full::SimdFloatAdd                0      0.00%     19.36% # attempts to use FU when none available
system.cpu1.iq.fu_full::SimdFloatAlu                0      0.00%     19.36% # attempts to use FU when none available
system.cpu1.iq.fu_full::SimdFloatCmp                0      0.00%     19.36% # attempts to use FU when none available
system.cpu1.iq.fu_full::SimdFloatCvt                0      0.00%     19.36% # attempts to use FU when none available
system.cpu1.iq.fu_full::SimdFloatDiv                0      0.00%     19.36% # attempts to use FU when none available
system.cpu1.iq.fu_full::SimdFloatMisc               0      0.00%     19.36% # attempts to use FU when none available
system.cpu1.iq.fu_full::SimdFloatMult               0      0.00%     19.36% # attempts to use FU when none available
system.cpu1.iq.fu_full::SimdFloatMultAcc            0      0.00%     19.36% # attempts to use FU when none available
system.cpu1.iq.fu_full::SimdFloatSqrt               0      0.00%     19.36% # attempts to use FU when none available
system.cpu1.iq.fu_full::SimdReduceAdd               0      0.00%     19.36% # attempts to use FU when none available
system.cpu1.iq.fu_full::SimdReduceAlu               0      0.00%     19.36% # attempts to use FU when none available
system.cpu1.iq.fu_full::SimdReduceCmp               0      0.00%     19.36% # attempts to use FU when none available
system.cpu1.iq.fu_full::SimdFloatReduceAdd            0      0.00%     19.36% # attempts to use FU when none available
system.cpu1.iq.fu_full::SimdFloatReduceCmp            0      0.00%     19.36% # attempts to use FU when none available
system.cpu1.iq.fu_full::SimdAes                     0      0.00%     19.36% # attempts to use FU when none available
system.cpu1.iq.fu_full::SimdAesMix                  0      0.00%     19.36% # attempts to use FU when none available
system.cpu1.iq.fu_full::SimdSha1Hash                0      0.00%     19.36% # attempts to use FU when none available
system.cpu1.iq.fu_full::SimdSha1Hash2               0      0.00%     19.36% # attempts to use FU when none available
system.cpu1.iq.fu_full::SimdSha256Hash              0      0.00%     19.36% # attempts to use FU when none available
system.cpu1.iq.fu_full::SimdSha256Hash2             0      0.00%     19.36% # attempts to use FU when none available
system.cpu1.iq.fu_full::SimdShaSigma2               0      0.00%     19.36% # attempts to use FU when none available
system.cpu1.iq.fu_full::SimdShaSigma3               0      0.00%     19.36% # attempts to use FU when none available
system.cpu1.iq.fu_full::SimdPredAlu                 0      0.00%     19.36% # attempts to use FU when none available
system.cpu1.iq.fu_full::MemRead                804870     72.35%     91.72% # attempts to use FU when none available
system.cpu1.iq.fu_full::MemWrite                92135      8.28%    100.00% # attempts to use FU when none available
[...]
system.cpu1.dcache.ReadReq_mshr_hits::total     86557812                       # number of ReadReq MSHR hits
system.cpu1.dcache.ReadReq_mshr_misses::.cpu1.data     68213930                       # number of ReadReq MSHR misses
system.cpu1.dcache.ReadReq_mshr_misses::total     68213930                       # number of ReadReq MSHR misses
system.cpu1.dcache.ReadReq_mshr_miss_latency::.cpu1.data 6254436510500                       # number of ReadReq MSHR miss cycles
system.cpu1.dcache.ReadReq_mshr_miss_latency::total 6254436510500                       # number of ReadReq MSHR miss cycles
system.cpu1.dcache.ReadReq_mshr_miss_rate::.cpu1.data     0.243345                       # mshr miss rate for ReadReq accesses
system.cpu1.dcache.ReadReq_mshr_miss_rate::total     0.243345                       # mshr miss rate for ReadReq accesses
system.cpu1.dcache.ReadReq_avg_mshr_miss_latency::.cpu1.data 91688.552624                       # average ReadReq mshr miss latency
system.cpu1.dcache.ReadReq_avg_mshr_miss_latency::total 91688.552624                       # average ReadReq mshr miss latency
system.cpu1.dcache.WriteReq_hits::.cpu1.data     17576405                       # number of WriteReq hits
system.cpu1.dcache.WriteReq_hits::total      17576405                       # number of WriteReq hits
system.cpu1.dcache.WriteReq_misses::.cpu1.data      7742540                       # number of WriteReq misses
system.cpu1.dcache.WriteReq_misses::total      7742540                       # number of WriteReq misses
system.cpu1.dcache.WriteReq_miss_latency::.cpu1.data 360183173320                       # number of WriteReq miss cycles
system.cpu1.dcache.WriteReq_miss_latency::total 360183173320                       # number of WriteReq miss cycles
system.cpu1.dcache.WriteReq_accesses::.cpu1.data     25318945                       # number of WriteReq accesses(hits+misses)
system.cpu1.dcache.WriteReq_accesses::total     25318945                       # number of WriteReq accesses(hits+misses)
system.cpu1.dcache.WriteReq_miss_rate::.cpu1.data     0.305800                       # miss rate for WriteReq accesses
system.cpu1.dcache.WriteReq_miss_rate::total     0.305800                       # miss rate for WriteReq accesses
system.cpu1.dcache.WriteReq_avg_miss_latency::.cpu1.data 46520.027448                       # average WriteReq miss latency
system.cpu1.dcache.WriteReq_avg_miss_latency::total 46520.027448                       # average WriteReq miss latency
system.cpu1.dcache.WriteReq_mshr_hits::.cpu1.data      6424219                       # number of WriteReq MSHR hits
system.cpu1.dcache.WriteReq_mshr_hits::total      6424219                       # number of WriteReq MSHR hits
system.cpu1.dcache.WriteReq_mshr_misses::.cpu1.data      1318321                       # number of WriteReq MSHR misses
system.cpu1.dcache.WriteReq_mshr_misses::total      1318321                       # number of WriteReq MSHR misses
system.cpu1.dcache.WriteReq_mshr_miss_latency::.cpu1.data  96307317951                       # number of WriteReq MSHR miss cycles
system.cpu1.dcache.WriteReq_mshr_miss_latency::total  96307317951                       # number of WriteReq MSHR miss cycles
system.cpu1.dcache.WriteReq_mshr_miss_rate::.cpu1.data     0.052069                       # mshr miss rate for WriteReq accesses
system.cpu1.dcache.WriteReq_mshr_miss_rate::total     0.052069                       # mshr miss rate for WriteReq accesses
system.cpu1.dcache.WriteReq_avg_mshr_miss_latency::.cpu1.data 73053.010573                       # average WriteReq mshr miss latency
system.cpu1.dcache.WriteReq_avg_mshr_miss_latency::total 73053.010573                       # average WriteReq mshr miss latency
system.cpu1.dcache.LoadLockedReq_hits::.cpu1.data         6537                       # number of LoadLockedReq hits
system.cpu1.dcache.LoadLockedReq_hits::total         6537                       # number of LoadLockedReq hits
system.cpu1.dcache.LoadLockedReq_misses::.cpu1.data         1689                       # number of LoadLockedReq misses
system.cpu1.dcache.LoadLockedReq_misses::total         1689                       # number of LoadLockedReq misses
system.cpu1.dcache.LoadLockedReq_miss_latency::.cpu1.data     62806000                       # number of LoadLockedReq miss cycles
system.cpu1.dcache.LoadLockedReq_miss_latency::total     62806000                       # number of LoadLockedReq miss cycles
system.cpu1.dcache.LoadLockedReq_accesses::.cpu1.data         8226                       # number of LoadLockedReq accesses(hits+misses)
system.cpu1.dcache.LoadLockedReq_accesses::total         8226                       # number of LoadLockedReq accesses(hits+misses)
system.cpu1.dcache.LoadLockedReq_miss_rate::.cpu1.data     0.205325                       # miss rate for LoadLockedReq accesses
system.cpu1.dcache.LoadLockedReq_miss_rate::total     0.205325                       # miss rate for LoadLockedReq accesses
system.cpu1.dcache.LoadLockedReq_avg_miss_latency::.cpu1.data 37185.316755                       # average LoadLockedReq miss latency
system.cpu1.dcache.LoadLockedReq_avg_miss_latency::total 37185.316755                       # average LoadLockedReq miss latency
system.cpu1.dcache.LoadLockedReq_mshr_hits::.cpu1.data         1319                       # number of LoadLockedReq MSHR hits
system.cpu1.dcache.LoadLockedReq_mshr_hits::total         1319                       # number of LoadLockedReq MSHR hits
system.cpu1.dcache.LoadLockedReq_mshr_misses::.cpu1.data          370                       # number of LoadLockedReq MSHR misses
system.cpu1.dcache.LoadLockedReq_mshr_misses::total          370                       # number of LoadLockedReq MSHR misses
system.cpu1.dcache.LoadLockedReq_mshr_miss_latency::.cpu1.data      3861500                       # number of LoadLockedReq MSHR miss cycles
system.cpu1.dcache.LoadLockedReq_mshr_miss_latency::total      3861500                       # number of LoadLockedReq MSHR miss cycles
system.cpu1.dcache.LoadLockedReq_mshr_miss_rate::.cpu1.data     0.044979                       # mshr miss rate for LoadLockedReq accesses
system.cpu1.dcache.LoadLockedReq_mshr_miss_rate::total     0.044979                       # mshr miss rate for LoadLockedReq accesses
system.cpu1.dcache.LoadLockedReq_avg_mshr_miss_latency::.cpu1.data 10436.486486                       # average LoadLockedReq mshr miss latency
system.cpu1.dcache.LoadLockedReq_avg_mshr_miss_latency::total 10436.486486                       # average LoadLockedReq mshr miss latency
system.cpu1.dcache.StoreCondReq_hits::.cpu1.data         4266                       # number of StoreCondReq hits
system.cpu1.dcache.StoreCondReq_hits::total         4266                       # number of StoreCondReq hits
system.cpu1.dcache.StoreCondReq_misses::.cpu1.data         2944                       # number of StoreCondReq misses
system.cpu1.dcache.StoreCondReq_misses::total         2944                       # number of StoreCondReq misses
system.cpu1.dcache.StoreCondReq_miss_latency::.cpu1.data     15260000                       # number of StoreCondReq miss cycles
system.cpu1.dcache.StoreCondReq_miss_latency::total     15260000                       # number of StoreCondReq miss cycles
system.cpu1.dcache.StoreCondReq_accesses::.cpu1.data         7210                       # number of StoreCondReq accesses(hits+misses)
system.cpu1.dcache.StoreCondReq_accesses::total         7210                       # number of StoreCondReq accesses(hits+misses)
system.cpu1.dcache.StoreCondReq_miss_rate::.cpu1.data     0.408322                       # miss rate for StoreCondReq accesses
system.cpu1.dcache.StoreCondReq_miss_rate::total     0.408322                       # miss rate for StoreCondReq accesses
system.cpu1.dcache.StoreCondReq_avg_miss_latency::.cpu1.data  5183.423913                       # average StoreCondReq miss latency
system.cpu1.dcache.StoreCondReq_avg_miss_latency::total  5183.423913                       # average StoreCondReq miss latency
system.cpu1.dcache.StoreCondReq_mshr_misses::.cpu1.data         2944                       # number of StoreCondReq MSHR misses
system.cpu1.dcache.StoreCondReq_mshr_misses::total         2944                       # number of StoreCondReq MSHR misses
system.cpu1.dcache.StoreCondReq_mshr_miss_latency::.cpu1.data     12316000                       # number of StoreCondReq MSHR miss cycles
system.cpu1.dcache.StoreCondReq_mshr_miss_latency::total     12316000                       # number of StoreCondReq MSHR miss cycles
system.cpu1.dcache.StoreCondReq_mshr_miss_rate::.cpu1.data     0.408322                       # mshr miss rate for StoreCondReq accesses
system.cpu1.dcache.StoreCondReq_mshr_miss_rate::total     0.408322                       # mshr miss rate for StoreCondReq accesses
system.cpu1.dcache.StoreCondReq_avg_mshr_miss_latency::.cpu1.data  4183.423913                       # average StoreCondReq mshr miss latency
system.cpu1.dcache.StoreCondReq_avg_mshr_miss_latency::total  4183.423913                       # average StoreCondReq mshr miss latency
system.cpu1.dcache.SwapReq_hits::.cpu1.data         4004                       # number of SwapReq hits
system.cpu1.dcache.SwapReq_hits::total           4004                       # number of SwapReq hits
system.cpu1.dcache.SwapReq_misses::.cpu1.data       191452                       # number of SwapReq misses
system.cpu1.dcache.SwapReq_misses::total       191452                       # number of SwapReq misses
system.cpu1.dcache.SwapReq_miss_latency::.cpu1.data   4975455500                       # number of SwapReq miss cycles
system.cpu1.dcache.SwapReq_miss_latency::total   4975455500                       # number of SwapReq miss cycles
system.cpu1.dcache.SwapReq_accesses::.cpu1.data       195456                       # number of SwapReq accesses(hits+misses)
system.cpu1.dcache.SwapReq_accesses::total       195456                       # number of SwapReq accesses(hits+misses)
system.cpu1.dcache.SwapReq_miss_rate::.cpu1.data     0.979515                       # miss rate for SwapReq accesses
system.cpu1.dcache.SwapReq_miss_rate::total     0.979515                       # miss rate for SwapReq accesses
system.cpu1.dcache.SwapReq_avg_miss_latency::.cpu1.data 25988.004826                       # average SwapReq miss latency
system.cpu1.dcache.SwapReq_avg_miss_latency::total 25988.004826                       # average SwapReq miss latency
system.cpu1.dcache.SwapReq_mshr_hits::.cpu1.data            1                       # number of SwapReq MSHR hits
system.cpu1.dcache.SwapReq_mshr_hits::total            1                       # number of SwapReq MSHR hits
system.cpu1.dcache.SwapReq_mshr_misses::.cpu1.data       191451                       # number of SwapReq MSHR misses
system.cpu1.dcache.SwapReq_mshr_misses::total       191451                       # number of SwapReq MSHR misses
system.cpu1.dcache.SwapReq_mshr_miss_latency::.cpu1.data   4784003500                       # number of SwapReq MSHR miss cycles
system.cpu1.dcache.SwapReq_mshr_miss_latency::total   4784003500                       # number of SwapReq MSHR miss cycles
system.cpu1.dcache.SwapReq_mshr_miss_rate::.cpu1.data     0.979509                       # mshr miss rate for SwapReq accesses
system.cpu1.dcache.SwapReq_mshr_miss_rate::total     0.979509                       # mshr miss rate for SwapReq accesses
system.cpu1.dcache.SwapReq_avg_mshr_miss_latency::.cpu1.data 24988.135345                       # average SwapReq mshr miss latency
system.cpu1.dcache.SwapReq_avg_mshr_miss_latency::total 24988.135345                       # average SwapReq mshr miss latency
system.cpu1.dcache.tags.pwrStateResidencyTicks::UNDEFINED 1924516146500                       # Cumulative time (in ticks) in various power states
system.cpu1.dcache.tags.tagsinuse           31.920950                       # Cycle average of tags in use
system.cpu1.dcache.tags.total_refs          213029705                       # Total number of references to valid blocks.
system.cpu1.dcache.tags.sampled_refs         69586433                       # Sample count of references to valid blocks.
system.cpu1.dcache.tags.avg_refs             3.061368                       # Average number of references to valid blocks.
system.cpu1.dcache.tags.warmup_cycle                0                       # Cycle when the warmup percentage was hit.
system.cpu1.dcache.tags.occ_blocks::.cpu1.data    31.920950                       # Average occupied blocks per requestor
system.cpu1.dcache.tags.occ_percent::.cpu1.data     0.997530                       # Average percentage of cache occupancy
system.cpu1.dcache.tags.occ_percent::total     0.997530                       # Average percentage of cache occupancy
system.cpu1.dcache.tags.occ_task_id_blocks::1024           27                       # Occupied blocks per task id
system.cpu1.dcache.tags.age_task_id_blocks_1024::1           27                       # Occupied blocks per task id
system.cpu1.dcache.tags.occ_task_id_percent::1024     0.843750                       # Percentage of cache occupancy per task id
system.cpu1.dcache.tags.tag_accesses        681282721                       # Number of tag accesses
system.cpu1.dcache.tags.data_accesses       681282721                       # Number of data accesses
system.cpu_clk_domain.clock                       500                       # Clock period in ticks
system.tol2bus.pwrStateResidencyTicks::UNDEFINED 1924516146500                       # Cumulative time (in ticks) in various power states
system.tol2bus.trans_dist::ReadResp         136782068                       # Transaction distribution
system.tol2bus.trans_dist::WritebackDirty      9622898                       # Transaction distribution
system.tol2bus.trans_dist::WritebackClean    133733562                       # Transaction distribution
system.tol2bus.trans_dist::CleanEvict       318943921                       # Transaction distribution
system.tol2bus.trans_dist::HardPFReq        177440055                       # Transaction distribution
system.tol2bus.trans_dist::HardPFResp             375                       # Transaction distribution
system.tol2bus.trans_dist::UpgradeReq          332853                       # Transaction distribution
system.tol2bus.trans_dist::SCUpgradeReq          5193                       # Transaction distribution
system.tol2bus.trans_dist::UpgradeResp         338046                       # Transaction distribution
system.tol2bus.trans_dist::SCUpgradeFailReq            3                       # Transaction distribution
system.tol2bus.trans_dist::UpgradeFailResp            3                       # Transaction distribution
system.tol2bus.trans_dist::ReadExReq          2799972                       # Transaction distribution
system.tol2bus.trans_dist::ReadExResp         2799972                       # Transaction distribution
system.tol2bus.trans_dist::ReadCleanReq        190946                       # Transaction distribution
system.tol2bus.trans_dist::ReadSharedReq    136591123                       # Transaction distribution
system.tol2bus.pkt_count_system.cpu0.icache.mem_side::system.l2.cpu_side       458659                       # Packet count per connected master and slave (bytes)
system.tol2bus.pkt_count_system.cpu0.dcache.mem_side::system.l2.cpu_side    209122108                       # Packet count per connected master and slave (bytes)
system.tol2bus.pkt_count_system.cpu1.icache.mem_side::system.l2.cpu_side       114177                       # Packet count per connected master and slave (bytes)
system.tol2bus.pkt_count_system.cpu1.dcache.mem_side::system.l2.cpu_side    208467329                       # Packet count per connected master and slave (bytes)
system.tol2bus.pkt_count::total             418162273                       # Packet count per connected master and slave (bytes)
system.tol2bus.pkt_size_system.cpu0.icache.mem_side::system.l2.cpu_side     19569408                       # Cumulative packet size per connected master and slave (bytes)
system.tol2bus.pkt_size_system.cpu0.dcache.mem_side::system.l2.cpu_side   8902351104                       # Cumulative packet size per connected master and slave (bytes)
system.tol2bus.pkt_size_system.cpu1.icache.mem_side::system.l2.cpu_side      4871552                       # Cumulative packet size per connected master and slave (bytes)
system.tol2bus.pkt_size_system.cpu1.dcache.mem_side::system.l2.cpu_side   8874366016                       # Cumulative packet size per connected master and slave (bytes)
system.tol2bus.pkt_size::total            17801158080                       # Cumulative packet size per connected master and slave (bytes)
system.tol2bus.snoops                       501419092                       # Total snoops (count)
system.tol2bus.snoopTraffic                 306954112                       # Total snoop traffic (bytes)
system.tol2bus.snoop_fanout::samples        640615701                       # Request fanout histogram
system.tol2bus.snoop_fanout::mean            0.211113                       # Request fanout histogram
system.tol2bus.snoop_fanout::stdev           0.424362                       # Request fanout histogram
system.tol2bus.snoop_fanout::underflows             0      0.00%      0.00% # Request fanout histogram
system.tol2bus.snoop_fanout::0              509710380     79.57%     79.57% # Request fanout histogram
system.tol2bus.snoop_fanout::1              126568626     19.76%     99.32% # Request fanout histogram
system.tol2bus.snoop_fanout::2                4336695      0.68%    100.00% # Request fanout histogram
system.tol2bus.snoop_fanout::3                      0      0.00%    100.00% # Request fanout histogram
system.tol2bus.snoop_fanout::4                      0      0.00%    100.00% # Request fanout histogram
system.tol2bus.snoop_fanout::5                      0      0.00%    100.00% # Request fanout histogram
system.tol2bus.snoop_fanout::6                      0      0.00%    100.00% # Request fanout histogram
system.tol2bus.snoop_fanout::7                      0      0.00%    100.00% # Request fanout histogram
system.tol2bus.snoop_fanout::8                      0      0.00%    100.00% # Request fanout histogram
system.tol2bus.snoop_fanout::overflows              0      0.00%    100.00% # Request fanout histogram
system.tol2bus.snoop_fanout::min_value              0                       # Request fanout histogram
system.tol2bus.snoop_fanout::max_value              2                       # Request fanout histogram
system.tol2bus.snoop_fanout::total          640615701                       # Request fanout histogram
system.tol2bus.reqLayer0.occupancy       278640888819                       # Layer occupancy (ticks)
system.tol2bus.reqLayer0.utilization             14.5                       # Layer utilization (%)
system.tol2bus.respLayer1.occupancy      104984144720                       # Layer occupancy (ticks)
system.tol2bus.respLayer1.utilization             5.5                       # Layer utilization (%)
system.tol2bus.respLayer0.occupancy         229573510                       # Layer occupancy (ticks)
system.tol2bus.respLayer0.utilization             0.0                       # Layer utilization (%)
system.tol2bus.respLayer3.occupancy      104659198524                       # Layer occupancy (ticks)
system.tol2bus.respLayer3.utilization             5.4                       # Layer utilization (%)
system.tol2bus.respLayer2.occupancy          57234707                       # Layer occupancy (ticks)
system.tol2bus.respLayer2.utilization             0.0                       # Layer utilization (%)
system.tol2bus.snoopLayer0.occupancy           562837                       # Layer occupancy (ticks)
system.tol2bus.snoopLayer0.utilization            0.0                       # Layer utilization (%)

---------- End Simulation Statistics   ----------
