
---------- Begin Simulation Statistics ----------
final_tick                               1056054140500                       # Number of ticks from beginning of simulation (restored from checkpoints and never reset)
host_inst_rate                                 104169                       # Simulator instruction rate (inst/s)
host_mem_usage                                 739332                       # Number of bytes of host memory used
host_op_rate                                   104473                       # Simulator op (including micro ops) rate (op/s)
host_seconds                                 13832.68                       # Real time elapsed on the host
host_tick_rate                               76344847                       # Simulator tick rate (ticks/s)
sim_freq                                 1000000000000                       # Frequency of simulated ticks
sim_insts                                  1440935904                       # Number of instructions simulated
sim_ops                                    1445140911                       # Number of ops (including micro ops) simulated
sim_seconds                                  1.056054                       # Number of seconds simulated
sim_ticks                                1056054140500                       # Number of ticks simulated
system.cpu0.branchPred.BTBCorrect                   0                       # Number of correct BTB predictions (this stat may not work properly.
system.cpu0.branchPred.BTBHitPct            88.070904                       # BTB Hit Percentage
system.cpu0.branchPred.BTBHits              169474610                       # Number of BTB hits
system.cpu0.branchPred.BTBLookups           192429738                       # Number of BTB lookups
system.cpu0.branchPred.RASInCorrect                 0                       # Number of incorrect RAS predictions.
system.cpu0.branchPred.condIncorrect         15365381                       # Number of conditional branches incorrect
system.cpu0.branchPred.condPredicted        262112375                       # Number of conditional branches predicted
system.cpu0.branchPred.indirectHits          21741322                       # Number of indirect target hits.
system.cpu0.branchPred.indirectLookups       22398624                       # Number of indirect predictor lookups.
system.cpu0.branchPred.indirectMisses          657302                       # Number of indirect misses.
system.cpu0.branchPred.lookups              332138489                       # Number of BP lookups
system.cpu0.branchPred.usedRAS                      0                       # Number of times the RAS was used to get a target.
system.cpu0.branchPredindirectMispredicted      2148169                       # Number of mispredicted indirect branches.
system.cpu0.commit.amos                       1050448                       # Number of atomic instructions committed
system.cpu0.commit.branchMispredicts          9304364                       # The number of times a branch was mispredicted
system.cpu0.commit.branches                 313655015                       # Number of branches committed
system.cpu0.commit.bw_lim_events             33896564                       # number cycles where commit BW limit reached
system.cpu0.commit.commitNonSpecStalls        3160572                       # The number of times commit has been forced to stall to communicate backwards
system.cpu0.commit.commitSquashedInsts       55363065                       # The number of squashed insts skipped by commit
system.cpu0.commit.committedInsts          1250518298                       # Number of instructions committed
system.cpu0.commit.committedOps            1251572031                       # Number of ops (including micro ops) committed
system.cpu0.commit.committed_per_cycle::samples   1942356539                       # Number of insts commited each cycle
system.cpu0.commit.committed_per_cycle::mean     0.644358                       # Number of insts commited each cycle
system.cpu0.commit.committed_per_cycle::stdev     1.402044                       # Number of insts commited each cycle
system.cpu0.commit.committed_per_cycle::underflows            0      0.00%      0.00% # Number of insts commited each cycle
system.cpu0.commit.committed_per_cycle::0   1339745563     68.98%     68.98% # Number of insts commited each cycle
system.cpu0.commit.committed_per_cycle::1    358348136     18.45%     87.42% # Number of insts commited each cycle
system.cpu0.commit.committed_per_cycle::2     84056392      4.33%     91.75% # Number of insts commited each cycle
system.cpu0.commit.committed_per_cycle::3     82594855      4.25%     96.00% # Number of insts commited each cycle
system.cpu0.commit.committed_per_cycle::4     26119640      1.34%     97.35% # Number of insts commited each cycle
system.cpu0.commit.committed_per_cycle::5      8303677      0.43%     97.78% # Number of insts commited each cycle
system.cpu0.commit.committed_per_cycle::6      4884895      0.25%     98.03% # Number of insts commited each cycle
system.cpu0.commit.committed_per_cycle::7      4406817      0.23%     98.25% # Number of insts commited each cycle
system.cpu0.commit.committed_per_cycle::8     33896564      1.75%    100.00% # Number of insts commited each cycle
system.cpu0.commit.committed_per_cycle::overflows            0      0.00%    100.00% # Number of insts commited each cycle
system.cpu0.commit.committed_per_cycle::min_value            0                       # Number of insts commited each cycle
system.cpu0.commit.committed_per_cycle::max_value            8                       # Number of insts commited each cycle
system.cpu0.commit.committed_per_cycle::total   1942356539                       # Number of insts commited each cycle
system.cpu0.commit.fp_insts                        50                       # Number of committed floating point instructions.
system.cpu0.commit.function_calls            24112797                       # Number of function calls committed.
system.cpu0.commit.int_insts               1209818341                       # Number of committed integer instructions.
system.cpu0.commit.loads                    388697321                       # Number of loads committed
system.cpu0.commit.membars                    2104050                       # Number of memory barriers committed
system.cpu0.commit.op_class_0::No_OpClass      2104056      0.17%      0.17% # Class of committed instruction
system.cpu0.commit.op_class_0::IntAlu       699530784     55.89%     56.06% # Class of committed instruction
system.cpu0.commit.op_class_0::IntMult       11833132      0.95%     57.01% # Class of committed instruction
system.cpu0.commit.op_class_0::IntDiv         2099835      0.17%     57.17% # Class of committed instruction
system.cpu0.commit.op_class_0::FloatAdd             0      0.00%     57.17% # Class of committed instruction
system.cpu0.commit.op_class_0::FloatCmp             4      0.00%     57.17% # Class of committed instruction
system.cpu0.commit.op_class_0::FloatCvt            12      0.00%     57.17% # Class of committed instruction
system.cpu0.commit.op_class_0::FloatMult            0      0.00%     57.17% # Class of committed instruction
system.cpu0.commit.op_class_0::FloatMultAcc            0      0.00%     57.17% # Class of committed instruction
system.cpu0.commit.op_class_0::FloatDiv             2      0.00%     57.17% # Class of committed instruction
system.cpu0.commit.op_class_0::FloatMisc            4      0.00%     57.17% # Class of committed instruction
system.cpu0.commit.op_class_0::FloatSqrt            0      0.00%     57.17% # Class of committed instruction
system.cpu0.commit.op_class_0::SimdAdd              0      0.00%     57.17% # Class of committed instruction
system.cpu0.commit.op_class_0::SimdAddAcc            0      0.00%     57.17% # Class of committed instruction
system.cpu0.commit.op_class_0::SimdAlu              0      0.00%     57.17% # Class of committed instruction
system.cpu0.commit.op_class_0::SimdCmp              0      0.00%     57.17% # Class of committed instruction
system.cpu0.commit.op_class_0::SimdCvt              0      0.00%     57.17% # Class of committed instruction
system.cpu0.commit.op_class_0::SimdMisc             0      0.00%     57.17% # Class of committed instruction
system.cpu0.commit.op_class_0::SimdMult             0      0.00%     57.17% # Class of committed instruction
system.cpu0.commit.op_class_0::SimdMultAcc            0      0.00%     57.17% # Class of committed instruction
system.cpu0.commit.op_class_0::SimdShift            0      0.00%     57.17% # Class of committed instruction
system.cpu0.commit.op_class_0::SimdShiftAcc            0      0.00%     57.17% # Class of committed instruction
system.cpu0.commit.op_class_0::SimdDiv              0      0.00%     57.17% # Class of committed instruction
system.cpu0.commit.op_class_0::SimdSqrt             0      0.00%     57.17% # Class of committed instruction
system.cpu0.commit.op_class_0::SimdFloatAdd            0      0.00%     57.17% # Class of committed instruction
system.cpu0.commit.op_class_0::SimdFloatAlu            0      0.00%     57.17% # Class of committed instruction
system.cpu0.commit.op_class_0::SimdFloatCmp            0      0.00%     57.17% # Class of committed instruction
system.cpu0.commit.op_class_0::SimdFloatCvt            0      0.00%     57.17% # Class of committed instruction
system.cpu0.commit.op_class_0::SimdFloatDiv            0      0.00%     57.17% # Class of committed instruction
system.cpu0.commit.op_class_0::SimdFloatMisc            0      0.00%     57.17% # Class of committed instruction
system.cpu0.commit.op_class_0::SimdFloatMult            0      0.00%     57.17% # Class of committed instruction
system.cpu0.commit.op_class_0::SimdFloatMultAcc            0      0.00%     57.17% # Class of committed instruction
system.cpu0.commit.op_class_0::SimdFloatSqrt            0      0.00%     57.17% # Class of committed instruction
system.cpu0.commit.op_class_0::SimdReduceAdd            0      0.00%     57.17% # Class of committed instruction
system.cpu0.commit.op_class_0::SimdReduceAlu            0      0.00%     57.17% # Class of committed instruction
system.cpu0.commit.op_class_0::SimdReduceCmp            0      0.00%     57.17% # Class of committed instruction
system.cpu0.commit.op_class_0::SimdFloatReduceAdd            0      0.00%     57.17% # Class of committed instruction
system.cpu0.commit.op_class_0::SimdFloatReduceCmp            0      0.00%     57.17% # Class of committed instruction
system.cpu0.commit.op_class_0::SimdAes              0      0.00%     57.17% # Class of committed instruction
system.cpu0.commit.op_class_0::SimdAesMix            0      0.00%     57.17% # Class of committed instruction
system.cpu0.commit.op_class_0::SimdSha1Hash            0      0.00%     57.17% # Class of committed instruction
system.cpu0.commit.op_class_0::SimdSha1Hash2            0      0.00%     57.17% # Class of committed instruction
system.cpu0.commit.op_class_0::SimdSha256Hash            0      0.00%     57.17% # Class of committed instruction
system.cpu0.commit.op_class_0::SimdSha256Hash2            0      0.00%     57.17% # Class of committed instruction
system.cpu0.commit.op_class_0::SimdShaSigma2            0      0.00%     57.17% # Class of committed instruction
system.cpu0.commit.op_class_0::SimdShaSigma3            0      0.00%     57.17% # Class of committed instruction
system.cpu0.commit.op_class_0::SimdPredAlu            0      0.00%     57.17% # Class of committed instruction
system.cpu0.commit.op_class_0::MemRead      389747761     31.14%     88.31% # Class of committed instruction
system.cpu0.commit.op_class_0::MemWrite     146256413     11.69%    100.00% # Class of committed instruction
system.cpu0.commit.op_class_0::FloatMemRead            8      0.00%    100.00% # Class of committed instruction
system.cpu0.commit.op_class_0::FloatMemWrite           20      0.00%    100.00% # Class of committed instruction
system.cpu0.commit.op_class_0::IprAccess            0      0.00%    100.00% # Class of committed instruction
system.cpu0.commit.op_class_0::InstPrefetch            0      0.00%    100.00% # Class of committed instruction
system.cpu0.commit.op_class_0::total       1251572031                       # Class of committed instruction
system.cpu0.commit.refs                     536004202                       # Number of memory references committed
system.cpu0.commit.swp_count                        0                       # Number of s/w prefetches committed
system.cpu0.commit.vec_insts                        0                       # Number of committed Vector instructions.
system.cpu0.committedInsts                 1250518298                       # Number of Instructions Simulated
system.cpu0.committedOps                   1251572031                       # Number of Ops (including micro ops) Simulated
system.cpu0.cpi                              1.680853                       # CPI: Cycles Per Instruction
system.cpu0.cpi_total                        1.680853                       # CPI: Total CPI of All Threads
system.cpu0.decode.BlockedCycles            283152242                       # Number of cycles decode is blocked
system.cpu0.decode.BranchMispred              6083258                       # Number of times decode detected a branch misprediction
system.cpu0.decode.BranchResolved           167628807                       # Number of times decode resolved a branch
system.cpu0.decode.DecodedInsts            1327481984                       # Number of instructions handled by decode
system.cpu0.decode.IdleCycles               744306841                       # Number of cycles decode is idle
system.cpu0.decode.RunCycles                915460917                       # Number of cycles decode is running
system.cpu0.decode.SquashCycles               9312720                       # Number of cycles decode is squashing
system.cpu0.decode.SquashedInsts             13962238                       # Number of squashed instructions handled by decode
system.cpu0.decode.UnblockCycles              4541755                       # Number of cycles decode is unblocking
system.cpu0.dtb.accesses                            0                       # DTB accesses
system.cpu0.dtb.hits                                0                       # DTB hits
system.cpu0.dtb.misses                              0                       # DTB misses
system.cpu0.dtb.read_accesses                       0                       # DTB read accesses
system.cpu0.dtb.read_hits                           0                       # DTB read hits
system.cpu0.dtb.read_misses                         0                       # DTB read misses
system.cpu0.dtb.write_accesses                      0                       # DTB write accesses
system.cpu0.dtb.write_hits                          0                       # DTB write hits
system.cpu0.dtb.write_misses                        0                       # DTB write misses
system.cpu0.fetch.Branches                  332138489                       # Number of branches that fetch encountered
system.cpu0.fetch.CacheLines                235009618                       # Number of cache lines fetched
system.cpu0.fetch.Cycles                   1213007262                       # Number of cycles fetch has run and was not squashing or blocked
system.cpu0.fetch.IcacheSquashes              5671579                       # Number of outstanding Icache misses that were squashed
system.cpu0.fetch.IcacheWaitRetryStallCycles           84                       # Number of stall cycles due to full MSHR
system.cpu0.fetch.Insts                    1357495938                       # Number of instructions fetch has processed
system.cpu0.fetch.MiscStallCycles                  75                       # Number of cycles fetch has spent waiting on interrupts, or bad addresses, or out of MSHRs
system.cpu0.fetch.PendingTrapStallCycles          263                       # Number of stall cycles due to pending traps
system.cpu0.fetch.SquashCycles               30747558                       # Number of cycles fetch has spent squashing
system.cpu0.fetch.branchRate                 0.158015                       # Number of branch fetches per cycle
system.cpu0.fetch.icacheStallCycles         728393012                       # Number of cycles fetch is stalled on an Icache miss
system.cpu0.fetch.predictedBranches         191215932                       # Number of branches that fetch has predicted taken
system.cpu0.fetch.rate                       0.645831                       # Number of inst fetches per cycle
system.cpu0.fetch.rateDist::samples        1956774475                       # Number of instructions fetched each cycle (Total)
system.cpu0.fetch.rateDist::mean             0.694835                       # Number of instructions fetched each cycle (Total)
system.cpu0.fetch.rateDist::stdev            0.918828                       # Number of instructions fetched each cycle (Total)
system.cpu0.fetch.rateDist::underflows              0      0.00%      0.00% # Number of instructions fetched each cycle (Total)
system.cpu0.fetch.rateDist::0               999699518     51.09%     51.09% # Number of instructions fetched each cycle (Total)
system.cpu0.fetch.rateDist::1               709834571     36.28%     87.36% # Number of instructions fetched each cycle (Total)
system.cpu0.fetch.rateDist::2               126867603      6.48%     93.85% # Number of instructions fetched each cycle (Total)
system.cpu0.fetch.rateDist::3                97860518      5.00%     98.85% # Number of instructions fetched each cycle (Total)
system.cpu0.fetch.rateDist::4                17039065      0.87%     99.72% # Number of instructions fetched each cycle (Total)
system.cpu0.fetch.rateDist::5                 2720477      0.14%     99.86% # Number of instructions fetched each cycle (Total)
system.cpu0.fetch.rateDist::6                  647634      0.03%     99.89% # Number of instructions fetched each cycle (Total)
system.cpu0.fetch.rateDist::7                     448      0.00%     99.89% # Number of instructions fetched each cycle (Total)
system.cpu0.fetch.rateDist::8                 2104641      0.11%    100.00% # Number of instructions fetched each cycle (Total)
system.cpu0.fetch.rateDist::overflows               0      0.00%    100.00% # Number of instructions fetched each cycle (Total)
system.cpu0.fetch.rateDist::min_value               0                       # Number of instructions fetched each cycle (Total)
system.cpu0.fetch.rateDist::max_value               8                       # Number of instructions fetched each cycle (Total)
system.cpu0.fetch.rateDist::total          1956774475                       # Number of instructions fetched each cycle (Total)
system.cpu0.fp_regfile_reads                       44                       # number of floating regfile reads
system.cpu0.fp_regfile_writes                      24                       # number of floating regfile writes
system.cpu0.idleCycles                      145163487                       # Total number of cycles that the CPU has spent unscheduled due to idling
system.cpu0.iew.branchMispredicts             9379188                       # Number of branch mispredicts detected at execute
system.cpu0.iew.exec_branches               320244514                       # Number of branches executed
system.cpu0.iew.exec_nop                            0                       # number of nop insts executed
system.cpu0.iew.exec_rate                    0.616265                       # Inst execution rate
system.cpu0.iew.exec_refs                   563277797                       # number of memory reference insts executed
system.cpu0.iew.exec_stores                 151677585                       # Number of stores executed
system.cpu0.iew.exec_swp                            0                       # number of swp insts executed
system.cpu0.iew.iewBlockCycles              211327104                       # Number of cycles IEW is blocking
system.cpu0.iew.iewDispLoadInsts            411561686                       # Number of dispatched load instructions
system.cpu0.iew.iewDispNonSpecInsts           1578112                       # Number of dispatched non-speculative instructions
system.cpu0.iew.iewDispSquashedInsts          5715345                       # Number of squashed instructions skipped by dispatch
system.cpu0.iew.iewDispStoreInsts           153290954                       # Number of dispatched store instructions
system.cpu0.iew.iewDispatchedInsts         1306901872                       # Number of instructions dispatched to IQ
system.cpu0.iew.iewExecLoadInsts            411600212                       # Number of load instructions executed
system.cpu0.iew.iewExecSquashedInsts          4924782                       # Number of squashed instructions skipped in execute
system.cpu0.iew.iewExecutedInsts           1295350400                       # Number of executed instructions
system.cpu0.iew.iewIQFullEvents               1081055                       # Number of times the IQ has become full, causing a stall
system.cpu0.iew.iewIdleCycles                       0                       # Number of cycles IEW is idle
system.cpu0.iew.iewLSQFullEvents              6666188                       # Number of times the LSQ has become full, causing a stall
system.cpu0.iew.iewSquashCycles               9312720                       # Number of cycles IEW is squashing
system.cpu0.iew.iewUnblockCycles              8995766                       # Number of cycles IEW is unblocking
system.cpu0.iew.lsq.thread0.blockedLoads            0                       # Number of blocked loads due to partial load-store forwarding
system.cpu0.iew.lsq.thread0.cacheBlocked       378748                       # Number of times an access to memory failed due to the cache being blocked
system.cpu0.iew.lsq.thread0.forwLoads        21917069                       # Number of loads that had data forwarded from stores
system.cpu0.iew.lsq.thread0.ignoredResponses        74005                       # Number of memory responses ignored because the instruction is squashed
system.cpu0.iew.lsq.thread0.invAddrLoads            0                       # Number of loads ignored due to an invalid address
system.cpu0.iew.lsq.thread0.invAddrSwpfs            0                       # Number of software prefetches ignored due to an invalid address
system.cpu0.iew.lsq.thread0.memOrderViolation         7277                       # Number of memory ordering violations
system.cpu0.iew.lsq.thread0.rescheduledLoads      4941067                       # Number of loads that were rescheduled
system.cpu0.iew.lsq.thread0.squashedLoads     22864365                       # Number of loads squashed
system.cpu0.iew.lsq.thread0.squashedStores      5984073                       # Number of stores squashed
system.cpu0.iew.memOrderViolationEvents          7277                       # Number of memory order violations
system.cpu0.iew.predictedNotTakenIncorrect       399785                       # Number of branches that were predicted not taken incorrectly
system.cpu0.iew.predictedTakenIncorrect       8979403                       # Number of branches that were predicted taken incorrectly
system.cpu0.iew.wb_consumers                596064141                       # num instructions consuming a value
system.cpu0.iew.wb_count                   1285977761                       # cumulative count of insts written-back
system.cpu0.iew.wb_fanout                    0.837720                       # average fanout of values written-back
system.cpu0.iew.wb_producers                499334731                       # num instructions producing a value
system.cpu0.iew.wb_rate                      0.611806                       # insts written-back per cycle
system.cpu0.iew.wb_sent                    1286057090                       # cumulative count of insts sent to commit
system.cpu0.int_regfile_reads              1589876542                       # number of integer regfile reads
system.cpu0.int_regfile_writes              824280956                       # number of integer regfile writes
system.cpu0.ipc                              0.594936                       # IPC: Instructions Per Cycle
system.cpu0.ipc_total                        0.594936                       # IPC: Total IPC of All Threads
system.cpu0.iq.FU_type_0::No_OpClass          2106124      0.16%      0.16% # Type of FU issued
system.cpu0.iq.FU_type_0::IntAlu            718988774     55.30%     55.46% # Type of FU issued
system.cpu0.iq.FU_type_0::IntMult            11842218      0.91%     56.37% # Type of FU issued
system.cpu0.iq.FU_type_0::IntDiv              2100428      0.16%     56.53% # Type of FU issued
system.cpu0.iq.FU_type_0::FloatAdd                  0      0.00%     56.53% # Type of FU issued
system.cpu0.iq.FU_type_0::FloatCmp                  4      0.00%     56.53% # Type of FU issued
system.cpu0.iq.FU_type_0::FloatCvt                 12      0.00%     56.53% # Type of FU issued
system.cpu0.iq.FU_type_0::FloatMult                 0      0.00%     56.53% # Type of FU issued
system.cpu0.iq.FU_type_0::FloatMultAcc              0      0.00%     56.53% # Type of FU issued
system.cpu0.iq.FU_type_0::FloatDiv                  2      0.00%     56.53% # Type of FU issued
system.cpu0.iq.FU_type_0::FloatMisc                 4      0.00%     56.53% # Type of FU issued
system.cpu0.iq.FU_type_0::FloatSqrt                 0      0.00%     56.53% # Type of FU issued
system.cpu0.iq.FU_type_0::SimdAdd                   0      0.00%     56.53% # Type of FU issued
system.cpu0.iq.FU_type_0::SimdAddAcc                0      0.00%     56.53% # Type of FU issued
system.cpu0.iq.FU_type_0::SimdAlu                   0      0.00%     56.53% # Type of FU issued
system.cpu0.iq.FU_type_0::SimdCmp                   0      0.00%     56.53% # Type of FU issued
system.cpu0.iq.FU_type_0::SimdCvt                   0      0.00%     56.53% # Type of FU issued
system.cpu0.iq.FU_type_0::SimdMisc                  0      0.00%     56.53% # Type of FU issued
system.cpu0.iq.FU_type_0::SimdMult                  0      0.00%     56.53% # Type of FU issued
system.cpu0.iq.FU_type_0::SimdMultAcc               0      0.00%     56.53% # Type of FU issued
system.cpu0.iq.FU_type_0::SimdShift                 0      0.00%     56.53% # Type of FU issued
system.cpu0.iq.FU_type_0::SimdShiftAcc              0      0.00%     56.53% # Type of FU issued
system.cpu0.iq.FU_type_0::SimdDiv                   0      0.00%     56.53% # Type of FU issued
system.cpu0.iq.FU_type_0::SimdSqrt                  0      0.00%     56.53% # Type of FU issued
system.cpu0.iq.FU_type_0::SimdFloatAdd              0      0.00%     56.53% # Type of FU issued
system.cpu0.iq.FU_type_0::SimdFloatAlu              0      0.00%     56.53% # Type of FU issued
system.cpu0.iq.FU_type_0::SimdFloatCmp              0      0.00%     56.53% # Type of FU issued
system.cpu0.iq.FU_type_0::SimdFloatCvt              0      0.00%     56.53% # Type of FU issued
system.cpu0.iq.FU_type_0::SimdFloatDiv              0      0.00%     56.53% # Type of FU issued
system.cpu0.iq.FU_type_0::SimdFloatMisc             0      0.00%     56.53% # Type of FU issued
system.cpu0.iq.FU_type_0::SimdFloatMult             0      0.00%     56.53% # Type of FU issued
system.cpu0.iq.FU_type_0::SimdFloatMultAcc            0      0.00%     56.53% # Type of FU issued
system.cpu0.iq.FU_type_0::SimdFloatSqrt             0      0.00%     56.53% # Type of FU issued
system.cpu0.iq.FU_type_0::SimdReduceAdd             0      0.00%     56.53% # Type of FU issued
system.cpu0.iq.FU_type_0::SimdReduceAlu             0      0.00%     56.53% # Type of FU issued
system.cpu0.iq.FU_type_0::SimdReduceCmp             0      0.00%     56.53% # Type of FU issued
system.cpu0.iq.FU_type_0::SimdFloatReduceAdd            0      0.00%     56.53% # Type of FU issued
system.cpu0.iq.FU_type_0::SimdFloatReduceCmp            0      0.00%     56.53% # Type of FU issued
system.cpu0.iq.FU_type_0::SimdAes                   0      0.00%     56.53% # Type of FU issued
system.cpu0.iq.FU_type_0::SimdAesMix                0      0.00%     56.53% # Type of FU issued
system.cpu0.iq.FU_type_0::SimdSha1Hash              0      0.00%     56.53% # Type of FU issued
system.cpu0.iq.FU_type_0::SimdSha1Hash2             0      0.00%     56.53% # Type of FU issued
system.cpu0.iq.FU_type_0::SimdSha256Hash            0      0.00%     56.53% # Type of FU issued
system.cpu0.iq.FU_type_0::SimdSha256Hash2            0      0.00%     56.53% # Type of FU issued
system.cpu0.iq.FU_type_0::SimdShaSigma2             0      0.00%     56.53% # Type of FU issued
system.cpu0.iq.FU_type_0::SimdShaSigma3             0      0.00%     56.53% # Type of FU issued
system.cpu0.iq.FU_type_0::SimdPredAlu               0      0.00%     56.53% # Type of FU issued
system.cpu0.iq.FU_type_0::MemRead           414449148     31.87%     88.40% # Type of FU issued
system.cpu0.iq.FU_type_0::MemWrite          150788438     11.60%    100.00% # Type of FU issued
system.cpu0.iq.FU_type_0::FloatMemRead             10      0.00%    100.00% # Type of FU issued
system.cpu0.iq.FU_type_0::FloatMemWrite            20      0.00%    100.00% # Type of FU issued
system.cpu0.iq.FU_type_0::IprAccess                 0      0.00%    100.00% # Type of FU issued
system.cpu0.iq.FU_type_0::InstPrefetch              0      0.00%    100.00% # Type of FU issued
system.cpu0.iq.FU_type_0::total            1300275182                       # Type of FU issued
system.cpu0.iq.fp_alu_accesses                     56                       # Number of floating point alu accesses
system.cpu0.iq.fp_inst_queue_reads                108                       # Number of floating instruction queue reads
system.cpu0.iq.fp_inst_queue_wakeup_accesses           52                       # Number of floating instruction queue wakeup accesses
system.cpu0.iq.fp_inst_queue_writes                54                       # Number of floating instruction queue writes
system.cpu0.iq.fu_busy_cnt                    1857773                       # FU busy when requested
system.cpu0.iq.fu_busy_rate                  0.001429                       # FU busy rate (busy events/executed inst)
system.cpu0.iq.fu_full::No_OpClass                  0      0.00%      0.00% # attempts to use FU when none available
system.cpu0.iq.fu_full::IntAlu                 355034     19.11%     19.11% # attempts to use FU when none available
system.cpu0.iq.fu_full::IntMult                    29      0.00%     19.11% # attempts to use FU when none available
system.cpu0.iq.fu_full::IntDiv                      0      0.00%     19.11% # attempts to use FU when none available
system.cpu0.iq.fu_full::FloatAdd                    0      0.00%     19.11% # attempts to use FU when none available
system.cpu0.iq.fu_full::FloatCmp                    0      0.00%     19.11% # attempts to use FU when none available
system.cpu0.iq.fu_full::FloatCvt                    0      0.00%     19.11% # attempts to use FU when none available
system.cpu0.iq.fu_full::FloatMult                   0      0.00%     19.11% # attempts to use FU when none available
system.cpu0.iq.fu_full::FloatMultAcc                0      0.00%     19.11% # attempts to use FU when none available
system.cpu0.iq.fu_full::FloatDiv                    0      0.00%     19.11% # attempts to use FU when none available
system.cpu0.iq.fu_full::FloatMisc                   0      0.00%     19.11% # attempts to use FU when none available
system.cpu0.iq.fu_full::FloatSqrt                   0      0.00%     19.11% # attempts to use FU when none available
system.cpu0.iq.fu_full::SimdAdd                     0      0.00%     19.11% # attempts to use FU when none available
system.cpu0.iq.fu_full::SimdAddAcc                  0      0.00%     19.11% # attempts to use FU when none available
system.cpu0.iq.fu_full::SimdAlu                     0      0.00%     19.11% # attempts to use FU when none available
system.cpu0.iq.fu_full::SimdCmp                     0      0.00%     19.11% # attempts to use FU when none available
system.cpu0.iq.fu_full::SimdCvt                     0      0.00%     19.11% # attempts to use FU when none available
system.cpu0.iq.fu_full::SimdMisc                    0      0.00%     19.11% # attempts to use FU when none available
system.cpu0.iq.fu_full::SimdMult                    0      0.00%     19.11% # attempts to use FU when none available
system.cpu0.iq.fu_full::SimdMultAcc                 0      0.00%     19.11% # attempts to use FU when none available
system.cpu0.iq.fu_full::SimdShift                   0      0.00%     19.11% # attempts to use FU when none available
system.cpu0.iq.fu_full::SimdShiftAcc                0      0.00%     19.11% # attempts to use FU when none available
system.cpu0.iq.fu_full::SimdDiv                     0      0.00%     19.11% # attempts to use FU when none available
system.cpu0.iq.fu_full::SimdSqrt                    0      0.00%     19.11% # attempts to use FU when none available
system.cpu0.iq.fu_full::SimdFloatAdd                0      0.00%     19.11% # attempts to use FU when none available
system.cpu0.iq.fu_full::SimdFloatAlu                0      0.00%     19.11% # attempts to use FU when none available
system.cpu0.iq.fu_full::SimdFloatCmp                0      0.00%     19.11% # attempts to use FU when none available
system.cpu0.iq.fu_full::SimdFloatCvt                0      0.00%     19.11% # attempts to use FU when none available
system.cpu0.iq.fu_full::SimdFloatDiv                0      0.00%     19.11% # attempts to use FU when none available
system.cpu0.iq.fu_full::SimdFloatMisc               0      0.00%     19.11% # attempts to use FU when none available
system.cpu0.iq.fu_full::SimdFloatMult               0      0.00%     19.11% # attempts to use FU when none available
system.cpu0.iq.fu_full::SimdFloatMultAcc            0      0.00%     19.11% # attempts to use FU when none available
system.cpu0.iq.fu_full::SimdFloatSqrt               0      0.00%     19.11% # attempts to use FU when none available
system.cpu0.iq.fu_full::SimdReduceAdd               0      0.00%     19.11% # attempts to use FU when none available
system.cpu0.iq.fu_full::SimdReduceAlu               0      0.00%     19.11% # attempts to use FU when none available
system.cpu0.iq.fu_full::SimdReduceCmp               0      0.00%     19.11% # attempts to use FU when none available
system.cpu0.iq.fu_full::SimdFloatReduceAdd            0      0.00%     19.11% # attempts to use FU when none available
system.cpu0.iq.fu_full::SimdFloatReduceCmp            0      0.00%     19.11% # attempts to use FU when none available
system.cpu0.iq.fu_full::SimdAes                     0      0.00%     19.11% # attempts to use FU when none available
system.cpu0.iq.fu_full::SimdAesMix                  0      0.00%     19.11% # attempts to use FU when none available
system.cpu0.iq.fu_full::SimdSha1Hash                0      0.00%     19.11% # attempts to use FU when none available
system.cpu0.iq.fu_full::SimdSha1Hash2               0      0.00%     19.11% # attempts to use FU when none available
system.cpu0.iq.fu_full::SimdSha256Hash              0      0.00%     19.11% # attempts to use FU when none available
system.cpu0.iq.fu_full::SimdSha256Hash2             0      0.00%     19.11% # attempts to use FU when none available
system.cpu0.iq.fu_full::SimdShaSigma2               0      0.00%     19.11% # attempts to use FU when none available
system.cpu0.iq.fu_full::SimdShaSigma3               0      0.00%     19.11% # attempts to use FU when none available
system.cpu0.iq.fu_full::SimdPredAlu                 0      0.00%     19.11% # attempts to use FU when none available
system.cpu0.iq.fu_full::MemRead               1206101     64.92%     84.03% # attempts to use FU when none available
system.cpu0.iq.fu_full::MemWrite               296605     15.97%    100.00% # attempts to use FU when none available
system.cpu0.iq.fu_full::FloatMemRead                0      0.00%    100.00% # attempts to use FU when none available
system.cpu0.iq.fu_full::FloatMemWrite               4      0.00%    100.00% # attempts to use FU when none available
system.cpu0.iq.fu_full::IprAccess                   0      0.00%    100.00% # attempts to use FU when none available
system.cpu0.iq.fu_full::InstPrefetch                0      0.00%    100.00% # attempts to use FU when none available
system.cpu0.iq.int_alu_accesses            1300026775                       # Number of integer alu accesses
system.cpu0.iq.int_inst_queue_reads        4559315570                       # Number of integer instruction queue reads
system.cpu0.iq.int_inst_queue_wakeup_accesses   1285977709                       # Number of integer instruction queue wakeup accesses
system.cpu0.iq.int_inst_queue_writes       1362238692                       # Number of integer instruction queue writes
system.cpu0.iq.iqInstsAdded                1302176811                       # Number of instructions added to the IQ (excludes non-spec)
system.cpu0.iq.iqInstsIssued               1300275182                       # Number of instructions issued
system.cpu0.iq.iqNonSpecInstsAdded            4725061                       # Number of non-speculative instructions added to the IQ
system.cpu0.iq.iqSquashedInstsExamined       55329838                       # Number of squashed instructions iterated over during squash; mainly for profiling
system.cpu0.iq.iqSquashedInstsIssued           133066                       # Number of squashed instructions issued
system.cpu0.iq.iqSquashedNonSpecRemoved       1564489                       # Number of squashed non-spec instructions that were removed
system.cpu0.iq.iqSquashedOperandsExamined     20572641                       # Number of squashed operands that are examined and possibly removed from graph
system.cpu0.iq.issued_per_cycle::samples   1956774475                       # Number of insts issued each cycle
system.cpu0.iq.issued_per_cycle::mean        0.664499                       # Number of insts issued each cycle
system.cpu0.iq.issued_per_cycle::stdev       0.870627                       # Number of insts issued each cycle
system.cpu0.iq.issued_per_cycle::underflows            0      0.00%      0.00% # Number of insts issued each cycle
system.cpu0.iq.issued_per_cycle::0         1054529953     53.89%     53.89% # Number of insts issued each cycle
system.cpu0.iq.issued_per_cycle::1          606820384     31.01%     84.90% # Number of insts issued each cycle
system.cpu0.iq.issued_per_cycle::2          208528372     10.66%     95.56% # Number of insts issued each cycle
system.cpu0.iq.issued_per_cycle::3           75525932      3.86%     99.42% # Number of insts issued each cycle
system.cpu0.iq.issued_per_cycle::4            8993620      0.46%     99.88% # Number of insts issued each cycle
system.cpu0.iq.issued_per_cycle::5            1060737      0.05%     99.93% # Number of insts issued each cycle
system.cpu0.iq.issued_per_cycle::6             850997      0.04%     99.98% # Number of insts issued each cycle
system.cpu0.iq.issued_per_cycle::7             279729      0.01%     99.99% # Number of insts issued each cycle
system.cpu0.iq.issued_per_cycle::8             184751      0.01%    100.00% # Number of insts issued each cycle
system.cpu0.iq.issued_per_cycle::overflows            0      0.00%    100.00% # Number of insts issued each cycle
system.cpu0.iq.issued_per_cycle::min_value            0                       # Number of insts issued each cycle
system.cpu0.iq.issued_per_cycle::max_value            8                       # Number of insts issued each cycle
system.cpu0.iq.issued_per_cycle::total     1956774475                       # Number of insts issued each cycle
system.cpu0.iq.rate                          0.618608                       # Inst issue rate
system.cpu0.iq.vec_alu_accesses                     0                       # Number of vector alu accesses
system.cpu0.iq.vec_inst_queue_reads                 0                       # Number of vector instruction queue reads
system.cpu0.iq.vec_inst_queue_wakeup_accesses            0                       # Number of vector instruction queue wakeup accesses
system.cpu0.iq.vec_inst_queue_writes                0                       # Number of vector instruction queue writes
system.cpu0.itb.accesses                            0                       # DTB accesses
system.cpu0.itb.hits                                0                       # DTB hits
system.cpu0.itb.misses                              0                       # DTB misses
system.cpu0.itb.read_accesses                       0                       # DTB read accesses
system.cpu0.itb.read_hits                           0                       # DTB read hits
system.cpu0.itb.read_misses                         0                       # DTB read misses
system.cpu0.itb.write_accesses                      0                       # DTB write accesses
system.cpu0.itb.write_hits                          0                       # DTB write hits
system.cpu0.itb.write_misses                        0                       # DTB write misses
system.cpu0.memDep0.conflictingLoads         14179648                       # Number of conflicting loads.
system.cpu0.memDep0.conflictingStores         3195881                       # Number of conflicting stores.
system.cpu0.memDep0.insertedLoads           411561686                       # Number of loads inserted to the mem dependence unit.
system.cpu0.memDep0.insertedStores          153290954                       # Number of stores inserted to the mem dependence unit.
system.cpu0.misc_regfile_reads                   2058                       # number of misc regfile reads
system.cpu0.misc_regfile_writes                    22                       # number of misc regfile writes
system.cpu0.numCycles                      2101937962                       # number of cpu cycles simulated
system.cpu0.numWorkItemsCompleted                   0                       # number of work items this cpu completed
system.cpu0.numWorkItemsStarted                     0                       # number of work items this cpu started
system.cpu0.quiesceCycles                    10170626                       # Total number of cycles that CPU has spent quiesced or waiting for an interrupt
system.cpu0.rename.BlockCycles              228463047                       # Number of cycles rename is blocking
system.cpu0.rename.CommittedMaps            800543622                       # Number of HB maps that are committed
system.cpu0.rename.IQFullEvents               7119172                       # Number of times rename has blocked due to IQ full
system.cpu0.rename.IdleCycles               755811339                       # Number of cycles rename is idle
system.cpu0.rename.LQFullEvents              16984623                       # Number of times rename has blocked due to LQ full
system.cpu0.rename.ROBFullEvents                12902                       # Number of times rename has blocked due to ROB full
system.cpu0.rename.RenameLookups           1621910234                       # Number of register rename lookups that rename has made
system.cpu0.rename.RenamedInsts            1321996209                       # Number of instructions processed by rename
system.cpu0.rename.RenamedOperands          853108181                       # Number of destination operands rename has renamed
system.cpu0.rename.RunCycles                907011620                       # Number of cycles rename is running
system.cpu0.rename.SQFullEvents              30620860                       # Number of times rename has blocked due to SQ full
system.cpu0.rename.SquashCycles               9312720                       # Number of cycles rename is squashing
system.cpu0.rename.UnblockCycles             56003907                       # Number of cycles rename is unblocking
system.cpu0.rename.UndoneMaps                52564555                       # Number of HB maps that are undone due to squashing
system.cpu0.rename.fp_rename_lookups               44                       # Number of floating rename lookups
system.cpu0.rename.int_rename_lookups      1621910190                       # Number of integer rename lookups
system.cpu0.rename.serializeStallCycles        171842                       # count of cycles rename stalled for serializing inst
system.cpu0.rename.serializingInsts              6199                       # count of serializing insts renamed
system.cpu0.rename.skidInsts                 18996353                       # count of insts added to the skid buffer
system.cpu0.rename.tempSerializingInsts          6185                       # count of temporary serializing insts renamed
system.cpu0.rob.rob_reads                  3215368876                       # The number of ROB reads
system.cpu0.rob.rob_writes                 2628303837                       # The number of ROB writes
system.cpu0.timesIdled                       22337231                       # Number of times that the entire CPU went into an idle state and unscheduled itself
system.cpu0.workload.numSyscalls                 2025                       # Number of system calls
system.cpu1.branchPred.BTBCorrect                   0                       # Number of correct BTB predictions (this stat may not work properly.
system.cpu1.branchPred.BTBHitPct            85.371446                       # BTB Hit Percentage
system.cpu1.branchPred.BTBHits               12355975                       # Number of BTB hits
system.cpu1.branchPred.BTBLookups            14473194                       # Number of BTB lookups
system.cpu1.branchPred.RASInCorrect                 0                       # Number of incorrect RAS predictions.
system.cpu1.branchPred.condIncorrect          1800958                       # Number of conditional branches incorrect
system.cpu1.branchPred.condPredicted         18043352                       # Number of conditional branches predicted
system.cpu1.branchPred.indirectHits            669726                       # Number of indirect target hits.
system.cpu1.branchPred.indirectLookups         682699                       # Number of indirect predictor lookups.
system.cpu1.branchPred.indirectMisses           12973                       # Number of indirect misses.
system.cpu1.branchPred.lookups               21083088                       # Number of BP lookups
system.cpu1.branchPred.usedRAS                      0                       # Number of times the RAS was used to get a target.
system.cpu1.branchPredindirectMispredicted        41954                       # Number of mispredicted indirect branches.
system.cpu1.commit.amos                       1050199                       # Number of atomic instructions committed
system.cpu1.commit.branchMispredicts          1330471                       # The number of times a branch was mispredicted
system.cpu1.commit.branches                  16227987                       # Number of branches committed
system.cpu1.commit.bw_lim_events              2039640                       # number cycles where commit BW limit reached
system.cpu1.commit.commitNonSpecStalls        3151345                       # The number of times commit has been forced to stall to communicate backwards
system.cpu1.commit.commitSquashedInsts       11156562                       # The number of squashed insts skipped by commit
system.cpu1.commit.committedInsts            67675429                       # Number of instructions committed
system.cpu1.commit.committedOps              68725849                       # Number of ops (including micro ops) committed
system.cpu1.commit.committed_per_cycle::samples    304737329                       # Number of insts commited each cycle
system.cpu1.commit.committed_per_cycle::mean     0.225525                       # Number of insts commited each cycle
system.cpu1.commit.committed_per_cycle::stdev     0.942000                       # Number of insts commited each cycle
system.cpu1.commit.committed_per_cycle::underflows            0      0.00%      0.00% # Number of insts commited each cycle
system.cpu1.commit.committed_per_cycle::0    276070431     90.59%     90.59% # Number of insts commited each cycle
system.cpu1.commit.committed_per_cycle::1     14408744      4.73%     95.32% # Number of insts commited each cycle
system.cpu1.commit.committed_per_cycle::2      5203294      1.71%     97.03% # Number of insts commited each cycle
system.cpu1.commit.committed_per_cycle::3      4033611      1.32%     98.35% # Number of insts commited each cycle
system.cpu1.commit.committed_per_cycle::4      1113835      0.37%     98.72% # Number of insts commited each cycle
system.cpu1.commit.committed_per_cycle::5       495999      0.16%     98.88% # Number of insts commited each cycle
system.cpu1.commit.committed_per_cycle::6      1045196      0.34%     99.22% # Number of insts commited each cycle
system.cpu1.commit.committed_per_cycle::7       326579      0.11%     99.33% # Number of insts commited each cycle
system.cpu1.commit.committed_per_cycle::8      2039640      0.67%    100.00% # Number of insts commited each cycle
system.cpu1.commit.committed_per_cycle::overflows            0      0.00%    100.00% # Number of insts commited each cycle
system.cpu1.commit.committed_per_cycle::min_value            0                       # Number of insts commited each cycle
system.cpu1.commit.committed_per_cycle::max_value            8                       # Number of insts commited each cycle
system.cpu1.commit.committed_per_cycle::total    304737329                       # Number of insts commited each cycle
system.cpu1.commit.fp_insts                        12                       # Number of committed floating point instructions.
system.cpu1.commit.function_calls             1074697                       # Number of function calls committed.
system.cpu1.commit.int_insts                 65710468                       # Number of committed integer instructions.
system.cpu1.commit.loads                     16751292                       # Number of loads committed
system.cpu1.commit.membars                    2100507                       # Number of memory barriers committed
system.cpu1.commit.op_class_0::No_OpClass      2100507      3.06%      3.06% # Class of committed instruction
system.cpu1.commit.op_class_0::IntAlu        43599522     63.44%     66.50% # Class of committed instruction
system.cpu1.commit.op_class_0::IntMult             44      0.00%     66.50% # Class of committed instruction
system.cpu1.commit.op_class_0::IntDiv              88      0.00%     66.50% # Class of committed instruction
system.cpu1.commit.op_class_0::FloatAdd             0      0.00%     66.50% # Class of committed instruction
system.cpu1.commit.op_class_0::FloatCmp             0      0.00%     66.50% # Class of committed instruction
system.cpu1.commit.op_class_0::FloatCvt             0      0.00%     66.50% # Class of committed instruction
system.cpu1.commit.op_class_0::FloatMult            0      0.00%     66.50% # Class of committed instruction
system.cpu1.commit.op_class_0::FloatMultAcc            0      0.00%     66.50% # Class of committed instruction
system.cpu1.commit.op_class_0::FloatDiv             0      0.00%     66.50% # Class of committed instruction
system.cpu1.commit.op_class_0::FloatMisc            0      0.00%     66.50% # Class of committed instruction
system.cpu1.commit.op_class_0::FloatSqrt            0      0.00%     66.50% # Class of committed instruction
system.cpu1.commit.op_class_0::SimdAdd              0      0.00%     66.50% # Class of committed instruction
system.cpu1.commit.op_class_0::SimdAddAcc            0      0.00%     66.50% # Class of committed instruction
system.cpu1.commit.op_class_0::SimdAlu              0      0.00%     66.50% # Class of committed instruction
system.cpu1.commit.op_class_0::SimdCmp              0      0.00%     66.50% # Class of committed instruction
system.cpu1.commit.op_class_0::SimdCvt              0      0.00%     66.50% # Class of committed instruction
system.cpu1.commit.op_class_0::SimdMisc             0      0.00%     66.50% # Class of committed instruction
system.cpu1.commit.op_class_0::SimdMult             0      0.00%     66.50% # Class of committed instruction
system.cpu1.commit.op_class_0::SimdMultAcc            0      0.00%     66.50% # Class of committed instruction
system.cpu1.commit.op_class_0::SimdShift            0      0.00%     66.50% # Class of committed instruction
system.cpu1.commit.op_class_0::SimdShiftAcc            0      0.00%     66.50% # Class of committed instruction
system.cpu1.commit.op_class_0::SimdDiv              0      0.00%     66.50% # Class of committed instruction
system.cpu1.commit.op_class_0::SimdSqrt             0      0.00%     66.50% # Class of committed instruction
system.cpu1.commit.op_class_0::SimdFloatAdd            0      0.00%     66.50% # Class of committed instruction
system.cpu1.commit.op_class_0::SimdFloatAlu            0      0.00%     66.50% # Class of committed instruction
system.cpu1.commit.op_class_0::SimdFloatCmp            0      0.00%     66.50% # Class of committed instruction
system.cpu1.commit.op_class_0::SimdFloatCvt            0      0.00%     66.50% # Class of committed instruction
system.cpu1.commit.op_class_0::SimdFloatDiv            0      0.00%     66.50% # Class of committed instruction
system.cpu1.commit.op_class_0::SimdFloatMisc            0      0.00%     66.50% # Class of committed instruction
system.cpu1.commit.op_class_0::SimdFloatMult            0      0.00%     66.50% # Class of committed instruction
system.cpu1.commit.op_class_0::SimdFloatMultAcc            0      0.00%     66.50% # Class of committed instruction
system.cpu1.commit.op_class_0::SimdFloatSqrt            0      0.00%     66.50% # Class of committed instruction
system.cpu1.commit.op_class_0::SimdReduceAdd            0      0.00%     66.50% # Class of committed instruction
system.cpu1.commit.op_class_0::SimdReduceAlu            0      0.00%     66.50% # Class of committed instruction
system.cpu1.commit.op_class_0::SimdReduceCmp            0      0.00%     66.50% # Class of committed instruction
system.cpu1.commit.op_class_0::SimdFloatReduceAdd            0      0.00%     66.50% # Class of committed instruction
system.cpu1.commit.op_class_0::SimdFloatReduceCmp            0      0.00%     66.50% # Class of committed instruction
system.cpu1.commit.op_class_0::SimdAes              0      0.00%     66.50% # Class of committed instruction
system.cpu1.commit.op_class_0::SimdAesMix            0      0.00%     66.50% # Class of committed instruction
system.cpu1.commit.op_class_0::SimdSha1Hash            0      0.00%     66.50% # Class of committed instruction
system.cpu1.commit.op_class_0::SimdSha1Hash2            0      0.00%     66.50% # Class of committed instruction
system.cpu1.commit.op_class_0::SimdSha256Hash            0      0.00%     66.50% # Class of committed instruction
system.cpu1.commit.op_class_0::SimdSha256Hash2            0      0.00%     66.50% # Class of committed instruction
system.cpu1.commit.op_class_0::SimdShaSigma2            0      0.00%     66.50% # Class of committed instruction
system.cpu1.commit.op_class_0::SimdShaSigma3            0      0.00%     66.50% # Class of committed instruction
system.cpu1.commit.op_class_0::SimdPredAlu            0      0.00%     66.50% # Class of committed instruction
system.cpu1.commit.op_class_0::MemRead       17801491     25.90%     92.40% # Class of committed instruction
system.cpu1.commit.op_class_0::MemWrite       5224185      7.60%    100.00% # Class of committed instruction
system.cpu1.commit.op_class_0::FloatMemRead            0      0.00%    100.00% # Class of committed instruction
system.cpu1.commit.op_class_0::FloatMemWrite           12      0.00%    100.00% # Class of committed instruction
system.cpu1.commit.op_class_0::IprAccess            0      0.00%    100.00% # Class of committed instruction
system.cpu1.commit.op_class_0::InstPrefetch            0      0.00%    100.00% # Class of committed instruction
system.cpu1.commit.op_class_0::total         68725849                       # Class of committed instruction
system.cpu1.commit.refs                      23025688                       # Number of memory references committed
system.cpu1.commit.swp_count                        0                       # Number of s/w prefetches committed
system.cpu1.commit.vec_insts                        0                       # Number of committed Vector instructions.
system.cpu1.committedInsts                   67675429                       # Number of Instructions Simulated
system.cpu1.committedOps                     68725849                       # Number of Ops (including micro ops) Simulated
system.cpu1.cpi                              4.564179                       # CPI: Cycles Per Instruction
system.cpu1.cpi_total                        4.564179                       # CPI: Total CPI of All Threads
system.cpu1.decode.BlockedCycles            246376990                       # Number of cycles decode is blocked
system.cpu1.decode.BranchMispred               499309                       # Number of times decode detected a branch misprediction
system.cpu1.decode.BranchResolved            11676943                       # Number of times decode resolved a branch
system.cpu1.decode.DecodedInsts              84423813                       # Number of instructions handled by decode
system.cpu1.decode.IdleCycles                16620831                       # Number of cycles decode is idle
system.cpu1.decode.RunCycles                 39984516                       # Number of cycles decode is running
system.cpu1.decode.SquashCycles               1331960                       # Number of cycles decode is squashing
system.cpu1.decode.SquashedInsts              1233931                       # Number of squashed instructions handled by decode
system.cpu1.decode.UnblockCycles              2720768                       # Number of cycles decode is unblocking
system.cpu1.dtb.accesses                            0                       # DTB accesses
system.cpu1.dtb.hits                                0                       # DTB hits
system.cpu1.dtb.misses                              0                       # DTB misses
system.cpu1.dtb.read_accesses                       0                       # DTB read accesses
system.cpu1.dtb.read_hits                           0                       # DTB read hits
system.cpu1.dtb.read_misses                         0                       # DTB read misses
system.cpu1.dtb.write_accesses                      0                       # DTB write accesses
system.cpu1.dtb.write_hits                          0                       # DTB write hits
system.cpu1.dtb.write_misses                        0                       # DTB write misses
system.cpu1.fetch.Branches                   21083088                       # Number of branches that fetch encountered
system.cpu1.fetch.CacheLines                 14714506                       # Number of cache lines fetched
system.cpu1.fetch.Cycles                    288316465                       # Number of cycles fetch has run and was not squashing or blocked
system.cpu1.fetch.IcacheSquashes               330375                       # Number of outstanding Icache misses that were squashed
system.cpu1.fetch.Insts                      88483020                       # Number of instructions fetch has processed
system.cpu1.fetch.MiscStallCycles                   1                       # Number of cycles fetch has spent waiting on interrupts, or bad addresses, or out of MSHRs
system.cpu1.fetch.SquashCycles                3604894                       # Number of cycles fetch has spent squashing
system.cpu1.fetch.branchRate                 0.068256                       # Number of branch fetches per cycle
system.cpu1.fetch.icacheStallCycles          16916152                       # Number of cycles fetch is stalled on an Icache miss
system.cpu1.fetch.predictedBranches          13025701                       # Number of branches that fetch has predicted taken
system.cpu1.fetch.rate                       0.286461                       # Number of inst fetches per cycle
system.cpu1.fetch.rateDist::samples         307035065                       # Number of instructions fetched each cycle (Total)
system.cpu1.fetch.rateDist::mean             0.291610                       # Number of instructions fetched each cycle (Total)
system.cpu1.fetch.rateDist::stdev            0.714541                       # Number of instructions fetched each cycle (Total)
system.cpu1.fetch.rateDist::underflows              0      0.00%      0.00% # Number of instructions fetched each cycle (Total)
system.cpu1.fetch.rateDist::0               249399568     81.23%     81.23% # Number of instructions fetched each cycle (Total)
system.cpu1.fetch.rateDist::1                36986566     12.05%     93.27% # Number of instructions fetched each cycle (Total)
system.cpu1.fetch.rateDist::2                11852713      3.86%     97.14% # Number of instructions fetched each cycle (Total)
system.cpu1.fetch.rateDist::3                 7140648      2.33%     99.46% # Number of instructions fetched each cycle (Total)
system.cpu1.fetch.rateDist::4                 1122029      0.37%     99.83% # Number of instructions fetched each cycle (Total)
system.cpu1.fetch.rateDist::5                  270297      0.09%     99.91% # Number of instructions fetched each cycle (Total)
system.cpu1.fetch.rateDist::6                  262463      0.09%    100.00% # Number of instructions fetched each cycle (Total)
system.cpu1.fetch.rateDist::7                       7      0.00%    100.00% # Number of instructions fetched each cycle (Total)
system.cpu1.fetch.rateDist::8                     774      0.00%    100.00% # Number of instructions fetched each cycle (Total)
system.cpu1.fetch.rateDist::overflows               0      0.00%    100.00% # Number of instructions fetched each cycle (Total)
system.cpu1.fetch.rateDist::min_value               0                       # Number of instructions fetched each cycle (Total)
system.cpu1.fetch.rateDist::max_value               8                       # Number of instructions fetched each cycle (Total)
system.cpu1.fetch.rateDist::total           307035065                       # Number of instructions fetched each cycle (Total)
system.cpu1.fp_regfile_reads                       12                       # number of floating regfile reads
system.cpu1.idleCycles                        1847712                       # Total number of cycles that the CPU has spent unscheduled due to idling
system.cpu1.iew.branchMispredicts             1396171                       # Number of branch mispredicts detected at execute
system.cpu1.iew.exec_branches                17824897                       # Number of branches executed
system.cpu1.iew.exec_nop                            0                       # number of nop insts executed
system.cpu1.iew.exec_rate                    0.247626                       # Inst execution rate
system.cpu1.iew.exec_refs                    26007260                       # number of memory reference insts executed
system.cpu1.iew.exec_stores                   6635220                       # Number of stores executed
system.cpu1.iew.exec_swp                            0                       # number of swp insts executed
system.cpu1.iew.iewBlockCycles              203413500                       # Number of cycles IEW is blocking
system.cpu1.iew.iewDispLoadInsts             19739202                       # Number of dispatched load instructions
system.cpu1.iew.iewDispNonSpecInsts           1051079                       # Number of dispatched non-speculative instructions
system.cpu1.iew.iewDispSquashedInsts          1380117                       # Number of squashed instructions skipped by dispatch
system.cpu1.iew.iewDispStoreInsts             6994455                       # Number of dispatched store instructions
system.cpu1.iew.iewDispatchedInsts           79858416                       # Number of instructions dispatched to IQ
system.cpu1.iew.iewExecLoadInsts             19372040                       # Number of load instructions executed
system.cpu1.iew.iewExecSquashedInsts          1314129                       # Number of squashed instructions skipped in execute
system.cpu1.iew.iewExecutedInsts             76487364                       # Number of executed instructions
system.cpu1.iew.iewIQFullEvents                852220                       # Number of times the IQ has become full, causing a stall
system.cpu1.iew.iewIdleCycles                       0                       # Number of cycles IEW is idle
system.cpu1.iew.iewLSQFullEvents              3849469                       # Number of times the LSQ has become full, causing a stall
system.cpu1.iew.iewSquashCycles               1331960                       # Number of cycles IEW is squashing
system.cpu1.iew.iewUnblockCycles              6044284                       # Number of cycles IEW is unblocking
system.cpu1.iew.lsq.thread0.blockedLoads            0                       # Number of blocked loads due to partial load-store forwarding
system.cpu1.iew.lsq.thread0.cacheBlocked        98742                       # Number of times an access to memory failed due to the cache being blocked
system.cpu1.iew.lsq.thread0.forwLoads          713364                       # Number of loads that had data forwarded from stores
system.cpu1.iew.lsq.thread0.ignoredResponses        31804                       # Number of memory responses ignored because the instruction is squashed
system.cpu1.iew.lsq.thread0.invAddrLoads            0                       # Number of loads ignored due to an invalid address
system.cpu1.iew.lsq.thread0.invAddrSwpfs            0                       # Number of software prefetches ignored due to an invalid address
system.cpu1.iew.lsq.thread0.memOrderViolation         2022                       # Number of memory ordering violations
system.cpu1.iew.lsq.thread0.rescheduledLoads        11117                       # Number of loads that were rescheduled
system.cpu1.iew.lsq.thread0.squashedLoads      2987910                       # Number of loads squashed
system.cpu1.iew.lsq.thread0.squashedStores       720059                       # Number of stores squashed
system.cpu1.iew.memOrderViolationEvents          2022                       # Number of memory order violations
system.cpu1.iew.predictedNotTakenIncorrect       404630                       # Number of branches that were predicted not taken incorrectly
system.cpu1.iew.predictedTakenIncorrect        991541                       # Number of branches that were predicted taken incorrectly
system.cpu1.iew.wb_consumers                 43887155                       # num instructions consuming a value
system.cpu1.iew.wb_count                     75292144                       # cumulative count of insts written-back
system.cpu1.iew.wb_fanout                    0.820992                       # average fanout of values written-back
system.cpu1.iew.wb_producers                 36030985                       # num instructions producing a value
system.cpu1.iew.wb_rate                      0.243756                       # insts written-back per cycle
system.cpu1.iew.wb_sent                      75343919                       # cumulative count of insts sent to commit
system.cpu1.int_regfile_reads                97130903                       # number of integer regfile reads
system.cpu1.int_regfile_writes               50454540                       # number of integer regfile writes
system.cpu1.ipc                              0.219097                       # IPC: Instructions Per Cycle
system.cpu1.ipc_total                        0.219097                       # IPC: Total IPC of All Threads
system.cpu1.iq.FU_type_0::No_OpClass          2100714      2.70%      2.70% # Type of FU issued
system.cpu1.iq.FU_type_0::IntAlu             49283823     63.35%     66.05% # Type of FU issued
system.cpu1.iq.FU_type_0::IntMult                  53      0.00%     66.05% # Type of FU issued
system.cpu1.iq.FU_type_0::IntDiv                   90      0.00%     66.05% # Type of FU issued
system.cpu1.iq.FU_type_0::FloatAdd                  0      0.00%     66.05% # Type of FU issued
system.cpu1.iq.FU_type_0::FloatCmp                  0      0.00%     66.05% # Type of FU issued
system.cpu1.iq.FU_type_0::FloatCvt                  0      0.00%     66.05% # Type of FU issued
system.cpu1.iq.FU_type_0::FloatMult                 0      0.00%     66.05% # Type of FU issued
system.cpu1.iq.FU_type_0::FloatMultAcc              0      0.00%     66.05% # Type of FU issued
system.cpu1.iq.FU_type_0::FloatDiv                  0      0.00%     66.05% # Type of FU issued
system.cpu1.iq.FU_type_0::FloatMisc                 0      0.00%     66.05% # Type of FU issued
system.cpu1.iq.FU_type_0::FloatSqrt                 0      0.00%     66.05% # Type of FU issued
system.cpu1.iq.FU_type_0::SimdAdd                   0      0.00%     66.05% # Type of FU issued
system.cpu1.iq.FU_type_0::SimdAddAcc                0      0.00%     66.05% # Type of FU issued
system.cpu1.iq.FU_type_0::SimdAlu                   0      0.00%     66.05% # Type of FU issued
system.cpu1.iq.FU_type_0::SimdCmp                   0      0.00%     66.05% # Type of FU issued
system.cpu1.iq.FU_type_0::SimdCvt                   0      0.00%     66.05% # Type of FU issued
system.cpu1.iq.FU_type_0::SimdMisc                  0      0.00%     66.05% # Type of FU issued
system.cpu1.iq.FU_type_0::SimdMult                  0      0.00%     66.05% # Type of FU issued
system.cpu1.iq.FU_type_0::SimdMultAcc               0      0.00%     66.05% # Type of FU issued
system.cpu1.iq.FU_type_0::SimdShift                 0      0.00%     66.05% # Type of FU issued
system.cpu1.iq.FU_type_0::SimdShiftAcc              0      0.00%     66.05% # Type of FU issued
system.cpu1.iq.FU_type_0::SimdDiv                   0      0.00%     66.05% # Type of FU issued
system.cpu1.iq.FU_type_0::SimdSqrt                  0      0.00%     66.05% # Type of FU issued
system.cpu1.iq.FU_type_0::SimdFloatAdd              0      0.00%     66.05% # Type of FU issued
system.cpu1.iq.FU_type_0::SimdFloatAlu              0      0.00%     66.05% # Type of FU issued
system.cpu1.iq.FU_type_0::SimdFloatCmp              0      0.00%     66.05% # Type of FU issued
system.cpu1.iq.FU_type_0::SimdFloatCvt              0      0.00%     66.05% # Type of FU issued
system.cpu1.iq.FU_type_0::SimdFloatDiv              0      0.00%     66.05% # Type of FU issued
system.cpu1.iq.FU_type_0::SimdFloatMisc             0      0.00%     66.05% # Type of FU issued
system.cpu1.iq.FU_type_0::SimdFloatMult             0      0.00%     66.05% # Type of FU issued
system.cpu1.iq.FU_type_0::SimdFloatMultAcc            0      0.00%     66.05% # Type of FU issued
system.cpu1.iq.FU_type_0::SimdFloatSqrt             0      0.00%     66.05% # Type of FU issued
system.cpu1.iq.FU_type_0::SimdReduceAdd             0      0.00%     66.05% # Type of FU issued
system.cpu1.iq.FU_type_0::SimdReduceAlu             0      0.00%     66.05% # Type of FU issued
system.cpu1.iq.FU_type_0::SimdReduceCmp             0      0.00%     66.05% # Type of FU issued
system.cpu1.iq.FU_type_0::SimdFloatReduceAdd            0      0.00%     66.05% # Type of FU issued
system.cpu1.iq.FU_type_0::SimdFloatReduceCmp            0      0.00%     66.05% # Type of FU issued
system.cpu1.iq.FU_type_0::SimdAes                   0      0.00%     66.05% # Type of FU issued
system.cpu1.iq.FU_type_0::SimdAesMix                0      0.00%     66.05% # Type of FU issued
system.cpu1.iq.FU_type_0::SimdSha1Hash              0      0.00%     66.05% # Type of FU issued
system.cpu1.iq.FU_type_0::SimdSha1Hash2             0      0.00%     66.05% # Type of FU issued
system.cpu1.iq.FU_type_0::SimdSha256Hash            0      0.00%     66.05% # Type of FU issued
system.cpu1.iq.FU_type_0::SimdSha256Hash2            0      0.00%     66.05% # Type of FU issued
system.cpu1.iq.FU_type_0::SimdShaSigma2             0      0.00%     66.05% # Type of FU issued
system.cpu1.iq.FU_type_0::SimdShaSigma3             0      0.00%     66.05% # Type of FU issued
system.cpu1.iq.FU_type_0::SimdPredAlu               0      0.00%     66.05% # Type of FU issued
system.cpu1.iq.FU_type_0::MemRead            20760870     26.68%     92.73% # Type of FU issued
system.cpu1.iq.FU_type_0::MemWrite            5655931      7.27%    100.00% # Type of FU issued
system.cpu1.iq.FU_type_0::FloatMemRead              0      0.00%    100.00% # Type of FU issued
system.cpu1.iq.FU_type_0::FloatMemWrite            12      0.00%    100.00% # Type of FU issued
system.cpu1.iq.FU_type_0::IprAccess                 0      0.00%    100.00% # Type of FU issued
system.cpu1.iq.FU_type_0::InstPrefetch              0      0.00%    100.00% # Type of FU issued
system.cpu1.iq.FU_type_0::total              77801493                       # Type of FU issued
system.cpu1.iq.fp_alu_accesses                     16                       # Number of floating point alu accesses
system.cpu1.iq.fp_inst_queue_reads                 28                       # Number of floating instruction queue reads
system.cpu1.iq.fp_inst_queue_wakeup_accesses           12                       # Number of floating instruction queue wakeup accesses
system.cpu1.iq.fp_inst_queue_writes                12                       # Number of floating instruction queue writes
system.cpu1.iq.fu_busy_cnt                    1586496                       # FU busy when requested
system.cpu1.iq.fu_busy_rate                  0.020392                       # FU busy rate (busy events/executed inst)
system.cpu1.iq.fu_full::No_OpClass                  0      0.00%      0.00% # attempts to use FU when none available
system.cpu1.iq.fu_full::IntAlu                 334197     21.07%     21.07% # attempts to use FU when none available
system.cpu1.iq.fu_full::IntMult                     0      0.00%     21.07% # attempts to use FU when none available
system.cpu1.iq.fu_full::IntDiv                      0      0.00%     21.07% # attempts to use FU when none available
system.cpu1.iq.fu_full::FloatAdd                    0      0.00%     21.07% # attempts to use FU when none available
system.cpu1.iq.fu_full::FloatCmp                    0      0.00%     21.07% # attempts to use FU when none available
system.cpu1.iq.fu_full::FloatCvt                    0      0.00%     21.07% # attempts to use FU when none available
system.cpu1.iq.fu_full::FloatMult                   0      0.00%     21.07% # attempts to use FU when none available
system.cpu1.iq.fu_full::FloatMultAcc                0      0.00%     21.07% # attempts to use FU when none available
system.cpu1.iq.fu_full::FloatDiv                    0      0.00%     21.07% # attempts to use FU when none available
system.cpu1.iq.fu_full::FloatMisc                   0      0.00%     21.07% # attempts to use FU when none available
system.cpu1.iq.fu_full::FloatSqrt                   0      0.00%     21.07% # attempts to use FU when none available
system.cpu1.iq.fu_full::SimdAdd                     0      0.00%     21.07% # attempts to use FU when none available
system.cpu1.iq.fu_full::SimdAddAcc                  0      0.00%     21.07% # attempts to use FU when none available
system.cpu1.iq.fu_full::SimdAlu                     0      0.00%     21.07% # attempts to use FU when none available
system.cpu1.iq.fu_full::SimdCmp                     0      0.00%     21.07% # attempts to use FU when none available
system.cpu1.iq.fu_full::SimdCvt                     0      0.00%     21.07% # attempts to use FU when none available
system.cpu1.iq.fu_full::SimdMisc                    0      0.00%     21.07% # attempts to use FU when none available
system.cpu1.iq.fu_full::SimdMult                    0      0.00%     21.07% # attempts to use FU when none available
system.cpu1.iq.fu_full::SimdMultAcc                 0      0.00%     21.07% # attempts to use FU when none available
system.cpu1.iq.fu_full::SimdShift                   0      0.00%     21.07% # attempts to use FU when none available
system.cpu1.iq.fu_full::SimdShiftAcc                0      0.00%     21.07% # attempts to use FU when none available
system.cpu1.iq.fu_full::SimdDiv                     0      0.00%     21.07% # attempts to use FU when none available
system.cpu1.iq.fu_full::SimdSqrt                    0      0.00%     21.07% # attempts to use FU when none available
system.cpu1.iq.fu_full::SimdFloatAdd                0      0.00%     21.07% # attempts to use FU when none available
system.cpu1.iq.fu_full::SimdFloatAlu                0      0.00%     21.07% # attempts to use FU when none available
system.cpu1.iq.fu_full::SimdFloatCmp                0      0.00%     21.07% # attempts to use FU when none available
system.cpu1.iq.fu_full::SimdFloatCvt                0      0.00%     21.07% # attempts to use FU when none available
system.cpu1.iq.fu_full::SimdFloatDiv                0      0.00%     21.07% # attempts to use FU when none available
system.cpu1.iq.fu_full::SimdFloatMisc               0      0.00%     21.07% # attempts to use FU when none available
system.cpu1.iq.fu_full::SimdFloatMult               0      0.00%     21.07% # attempts to use FU when none available
system.cpu1.iq.fu_full::SimdFloatMultAcc            0      0.00%     21.07% # attempts to use FU when none available
system.cpu1.iq.fu_full::SimdFloatSqrt               0      0.00%     21.07% # attempts to use FU when none available
system.cpu1.iq.fu_full::SimdReduceAdd               0      0.00%     21.07% # attempts to use FU when none available
system.cpu1.iq.fu_full::SimdReduceAlu               0      0.00%     21.07% # attempts to use FU when none available
system.cpu1.iq.fu_full::SimdReduceCmp               0      0.00%     21.07% # attempts to use FU when none available
system.cpu1.iq.fu_full::SimdFloatReduceAdd            0      0.00%     21.07% # attempts to use FU when none available
system.cpu1.iq.fu_full::SimdFloatReduceCmp            0      0.00%     21.07% # attempts to use FU when none available
system.cpu1.iq.fu_full::SimdAes                     0      0.00%     21.07% # attempts to use FU when none available
system.cpu1.iq.fu_full::SimdAesMix                  0      0.00%     21.07% # attempts to use FU when none available
system.cpu1.iq.fu_full::SimdSha1Hash                0      0.00%     21.07% # attempts to use FU when none available
system.cpu1.iq.fu_full::SimdSha1Hash2               0      0.00%     21.07% # attempts to use FU when none available
system.cpu1.iq.fu_full::SimdSha256Hash              0      0.00%     21.07% # attempts to use FU when none available
system.cpu1.iq.fu_full::SimdSha256Hash2             0      0.00%     21.07% # attempts to use FU when none available
system.cpu1.iq.fu_full::SimdShaSigma2               0      0.00%     21.07% # attempts to use FU when none available
system.cpu1.iq.fu_full::SimdShaSigma3               0      0.00%     21.07% # attempts to use FU when none available
system.cpu1.iq.fu_full::SimdPredAlu                 0      0.00%     21.07% # attempts to use FU when none available
system.cpu1.iq.fu_full::MemRead                982605     61.94%     83.00% # attempts to use FU when none available
system.cpu1.iq.fu_full::MemWrite               269690     17.00%    100.00% # attempts to use FU when none available
[...]
system.cpu1.dcache.WriteReq_mshr_miss_rate::.cpu1.data     0.047080                       # mshr miss rate for WriteReq accesses
system.cpu1.dcache.WriteReq_mshr_miss_rate::total     0.047080                       # mshr miss rate for WriteReq accesses
system.cpu1.dcache.WriteReq_avg_mshr_miss_latency::.cpu1.data 108476.851289                       # average WriteReq mshr miss latency
system.cpu1.dcache.WriteReq_avg_mshr_miss_latency::total 108476.851289                       # average WriteReq mshr miss latency
system.cpu1.dcache.LoadLockedReq_hits::.cpu1.data        18010                       # number of LoadLockedReq hits
system.cpu1.dcache.LoadLockedReq_hits::total        18010                       # number of LoadLockedReq hits
system.cpu1.dcache.LoadLockedReq_misses::.cpu1.data          718                       # number of LoadLockedReq misses
system.cpu1.dcache.LoadLockedReq_misses::total          718                       # number of LoadLockedReq misses
system.cpu1.dcache.LoadLockedReq_miss_latency::.cpu1.data     26708500                       # number of LoadLockedReq miss cycles
system.cpu1.dcache.LoadLockedReq_miss_latency::total     26708500                       # number of LoadLockedReq miss cycles
system.cpu1.dcache.LoadLockedReq_accesses::.cpu1.data        18728                       # number of LoadLockedReq accesses(hits+misses)
system.cpu1.dcache.LoadLockedReq_accesses::total        18728                       # number of LoadLockedReq accesses(hits+misses)
system.cpu1.dcache.LoadLockedReq_miss_rate::.cpu1.data     0.038338                       # miss rate for LoadLockedReq accesses
system.cpu1.dcache.LoadLockedReq_miss_rate::total     0.038338                       # miss rate for LoadLockedReq accesses
system.cpu1.dcache.LoadLockedReq_avg_miss_latency::.cpu1.data 37198.467967                       # average LoadLockedReq miss latency
system.cpu1.dcache.LoadLockedReq_avg_miss_latency::total 37198.467967                       # average LoadLockedReq miss latency
system.cpu1.dcache.LoadLockedReq_mshr_hits::.cpu1.data          129                       # number of LoadLockedReq MSHR hits
system.cpu1.dcache.LoadLockedReq_mshr_hits::total          129                       # number of LoadLockedReq MSHR hits
system.cpu1.dcache.LoadLockedReq_mshr_misses::.cpu1.data          589                       # number of LoadLockedReq MSHR misses
system.cpu1.dcache.LoadLockedReq_mshr_misses::total          589                       # number of LoadLockedReq MSHR misses
system.cpu1.dcache.LoadLockedReq_mshr_miss_latency::.cpu1.data     20401500                       # number of LoadLockedReq MSHR miss cycles
system.cpu1.dcache.LoadLockedReq_mshr_miss_latency::total     20401500                       # number of LoadLockedReq MSHR miss cycles
system.cpu1.dcache.LoadLockedReq_mshr_miss_rate::.cpu1.data     0.031450                       # mshr miss rate for LoadLockedReq accesses
system.cpu1.dcache.LoadLockedReq_mshr_miss_rate::total     0.031450                       # mshr miss rate for LoadLockedReq accesses
system.cpu1.dcache.LoadLockedReq_avg_mshr_miss_latency::.cpu1.data 34637.521222                       # average LoadLockedReq mshr miss latency
system.cpu1.dcache.LoadLockedReq_avg_mshr_miss_latency::total 34637.521222                       # average LoadLockedReq mshr miss latency
system.cpu1.dcache.StoreCondReq_hits::.cpu1.data        17112                       # number of StoreCondReq hits
system.cpu1.dcache.StoreCondReq_hits::total        17112                       # number of StoreCondReq hits
system.cpu1.dcache.StoreCondReq_misses::.cpu1.data          827                       # number of StoreCondReq misses
system.cpu1.dcache.StoreCondReq_misses::total          827                       # number of StoreCondReq misses
system.cpu1.dcache.StoreCondReq_miss_latency::.cpu1.data      5903000                       # number of StoreCondReq miss cycles
system.cpu1.dcache.StoreCondReq_miss_latency::total      5903000                       # number of StoreCondReq miss cycles
system.cpu1.dcache.StoreCondReq_accesses::.cpu1.data        17939                       # number of StoreCondReq accesses(hits+misses)
system.cpu1.dcache.StoreCondReq_accesses::total        17939                       # number of StoreCondReq accesses(hits+misses)
system.cpu1.dcache.StoreCondReq_miss_rate::.cpu1.data     0.046101                       # miss rate for StoreCondReq accesses
system.cpu1.dcache.StoreCondReq_miss_rate::total     0.046101                       # miss rate for StoreCondReq accesses
system.cpu1.dcache.StoreCondReq_avg_miss_latency::.cpu1.data  7137.847642                       # average StoreCondReq miss latency
system.cpu1.dcache.StoreCondReq_avg_miss_latency::total  7137.847642                       # average StoreCondReq miss latency
system.cpu1.dcache.StoreCondReq_mshr_misses::.cpu1.data          808                       # number of StoreCondReq MSHR misses
system.cpu1.dcache.StoreCondReq_mshr_misses::total          808                       # number of StoreCondReq MSHR misses
system.cpu1.dcache.StoreCondReq_mshr_miss_latency::.cpu1.data      5175000                       # number of StoreCondReq MSHR miss cycles
system.cpu1.dcache.StoreCondReq_mshr_miss_latency::total      5175000                       # number of StoreCondReq MSHR miss cycles
system.cpu1.dcache.StoreCondReq_mshr_miss_rate::.cpu1.data     0.045042                       # mshr miss rate for StoreCondReq accesses
system.cpu1.dcache.StoreCondReq_mshr_miss_rate::total     0.045042                       # mshr miss rate for StoreCondReq accesses
system.cpu1.dcache.StoreCondReq_avg_mshr_miss_latency::.cpu1.data  6404.702970                       # average StoreCondReq mshr miss latency
system.cpu1.dcache.StoreCondReq_avg_mshr_miss_latency::total  6404.702970                       # average StoreCondReq mshr miss latency
system.cpu1.dcache.StoreCondFailReq_miss_latency::.cpu1.data      1045500                       # number of StoreCondFailReq miss cycles
system.cpu1.dcache.StoreCondFailReq_miss_latency::total      1045500                       # number of StoreCondFailReq miss cycles
system.cpu1.dcache.StoreCondFailReq_avg_miss_latency::.cpu1.data          inf                       # average StoreCondFailReq miss latency
system.cpu1.dcache.StoreCondFailReq_avg_miss_latency::total          inf                       # average StoreCondFailReq miss latency
system.cpu1.dcache.StoreCondFailReq_mshr_miss_latency::.cpu1.data       965500                       # number of StoreCondFailReq MSHR miss cycles
system.cpu1.dcache.StoreCondFailReq_mshr_miss_latency::total       965500                       # number of StoreCondFailReq MSHR miss cycles
system.cpu1.dcache.StoreCondFailReq_avg_mshr_miss_latency::.cpu1.data          inf                       # average StoreCondFailReq mshr miss latency
system.cpu1.dcache.StoreCondFailReq_avg_mshr_miss_latency::total          inf                       # average StoreCondFailReq mshr miss latency
system.cpu1.dcache.SwapReq_hits::.cpu1.data          653                       # number of SwapReq hits
system.cpu1.dcache.SwapReq_hits::total            653                       # number of SwapReq hits
system.cpu1.dcache.SwapReq_misses::.cpu1.data         1215                       # number of SwapReq misses
system.cpu1.dcache.SwapReq_misses::total         1215                       # number of SwapReq misses
system.cpu1.dcache.SwapReq_miss_latency::.cpu1.data     13271500                       # number of SwapReq miss cycles
system.cpu1.dcache.SwapReq_miss_latency::total     13271500                       # number of SwapReq miss cycles
system.cpu1.dcache.SwapReq_accesses::.cpu1.data         1868                       # number of SwapReq accesses(hits+misses)
system.cpu1.dcache.SwapReq_accesses::total         1868                       # number of SwapReq accesses(hits+misses)
system.cpu1.dcache.SwapReq_miss_rate::.cpu1.data     0.650428                       # miss rate for SwapReq accesses
system.cpu1.dcache.SwapReq_miss_rate::total     0.650428                       # miss rate for SwapReq accesses
system.cpu1.dcache.SwapReq_avg_miss_latency::.cpu1.data 10923.045267                       # average SwapReq miss latency
system.cpu1.dcache.SwapReq_avg_miss_latency::total 10923.045267                       # average SwapReq miss latency
system.cpu1.dcache.SwapReq_mshr_hits::.cpu1.data            2                       # number of SwapReq MSHR hits
system.cpu1.dcache.SwapReq_mshr_hits::total            2                       # number of SwapReq MSHR hits
system.cpu1.dcache.SwapReq_mshr_misses::.cpu1.data         1213                       # number of SwapReq MSHR misses
system.cpu1.dcache.SwapReq_mshr_misses::total         1213                       # number of SwapReq MSHR misses
system.cpu1.dcache.SwapReq_mshr_miss_latency::.cpu1.data     12056500                       # number of SwapReq MSHR miss cycles
system.cpu1.dcache.SwapReq_mshr_miss_latency::total     12056500                       # number of SwapReq MSHR miss cycles
system.cpu1.dcache.SwapReq_mshr_miss_rate::.cpu1.data     0.649358                       # mshr miss rate for SwapReq accesses
system.cpu1.dcache.SwapReq_mshr_miss_rate::total     0.649358                       # mshr miss rate for SwapReq accesses
system.cpu1.dcache.SwapReq_avg_mshr_miss_latency::.cpu1.data  9939.406430                       # average SwapReq mshr miss latency
system.cpu1.dcache.SwapReq_avg_mshr_miss_latency::total  9939.406430                       # average SwapReq mshr miss latency
system.cpu1.dcache.tags.pwrStateResidencyTicks::UNDEFINED  45467540500                       # Cumulative time (in ticks) in various power states
system.cpu1.dcache.tags.tagsinuse           31.427541                       # Cycle average of tags in use
system.cpu1.dcache.tags.total_refs            7919531                       # Total number of references to valid blocks.
system.cpu1.dcache.tags.sampled_refs           500060                       # Sample count of references to valid blocks.
system.cpu1.dcache.tags.avg_refs            15.837162                       # Average number of references to valid blocks.
system.cpu1.dcache.tags.warmup_cycle                0                       # Cycle when the warmup percentage was hit.
system.cpu1.dcache.tags.occ_blocks::.cpu1.data    31.427541                       # Average occupied blocks per requestor
system.cpu1.dcache.tags.occ_percent::.cpu1.data     0.982111                       # Average percentage of cache occupancy
system.cpu1.dcache.tags.occ_percent::total     0.982111                       # Average percentage of cache occupancy
system.cpu1.dcache.tags.occ_task_id_blocks::1024           27                       # Occupied blocks per task id
system.cpu1.dcache.tags.age_task_id_blocks_1024::1           27                       # Occupied blocks per task id
system.cpu1.dcache.tags.occ_task_id_percent::1024     0.843750                       # Percentage of cache occupancy per task id
system.cpu1.dcache.tags.tag_accesses         25954106                       # Number of tag accesses
system.cpu1.dcache.tags.data_accesses        25954106                       # Number of data accesses
system.cpu_clk_domain.clock                       500                       # Clock period in ticks
system.tol2bus.pwrStateResidencyTicks::UNDEFINED  45467540500                       # Cumulative time (in ticks) in various power states
system.tol2bus.trans_dist::ReadResp           1688573                       # Transaction distribution
system.tol2bus.trans_dist::ReadRespWithInvalidate           19                       # Transaction distribution
system.tol2bus.trans_dist::WritebackDirty      1868682                       # Transaction distribution
system.tol2bus.trans_dist::WritebackClean      1217168                       # Transaction distribution
system.tol2bus.trans_dist::CleanEvict         3161312                       # Transaction distribution
system.tol2bus.trans_dist::UpgradeReq            4581                       # Transaction distribution
system.tol2bus.trans_dist::SCUpgradeReq          3496                       # Transaction distribution
system.tol2bus.trans_dist::UpgradeResp           8077                       # Transaction distribution
system.tol2bus.trans_dist::SCUpgradeFailReq          201                       # Transaction distribution
system.tol2bus.trans_dist::UpgradeFailResp          201                       # Transaction distribution
system.tol2bus.trans_dist::ReadExReq           482668                       # Transaction distribution
system.tol2bus.trans_dist::ReadExResp          482669                       # Transaction distribution
system.tol2bus.trans_dist::ReadCleanReq        119477                       # Transaction distribution
system.tol2bus.trans_dist::ReadSharedReq      1569115                       # Transaction distribution
system.tol2bus.trans_dist::InvalidateReq          107                       # Transaction distribution
system.tol2bus.trans_dist::InvalidateResp          107                       # Transaction distribution
system.tol2bus.pkt_count_system.cpu0.icache.mem_side::system.l2.cpu_side       217272                       # Packet count per connected master and slave (bytes)
system.tol2bus.pkt_count_system.cpu0.dcache.mem_side::system.l2.cpu_side      1650090                       # Packet count per connected master and slave (bytes)
system.tol2bus.pkt_count_system.cpu1.icache.mem_side::system.l2.cpu_side        46998                       # Packet count per connected master and slave (bytes)
system.tol2bus.pkt_count_system.cpu1.dcache.mem_side::system.l2.cpu_side      1494775                       # Packet count per connected master and slave (bytes)
system.tol2bus.pkt_count_system.cpu2.icache.mem_side::system.l2.cpu_side        47340                       # Packet count per connected master and slave (bytes)
system.tol2bus.pkt_count_system.cpu2.dcache.mem_side::system.l2.cpu_side      1493408                       # Packet count per connected master and slave (bytes)
system.tol2bus.pkt_count_system.cpu3.icache.mem_side::system.l2.cpu_side        46821                       # Packet count per connected master and slave (bytes)
system.tol2bus.pkt_count_system.cpu3.dcache.mem_side::system.l2.cpu_side      1498192                       # Packet count per connected master and slave (bytes)
system.tol2bus.pkt_count::total               6494896                       # Packet count per connected master and slave (bytes)
system.tol2bus.pkt_size_system.cpu0.icache.mem_side::system.l2.cpu_side      9270272                       # Cumulative packet size per connected master and slave (bytes)
system.tol2bus.pkt_size_system.cpu0.dcache.mem_side::system.l2.cpu_side     70132736                       # Cumulative packet size per connected master and slave (bytes)
system.tol2bus.pkt_size_system.cpu1.icache.mem_side::system.l2.cpu_side      2005248                       # Cumulative packet size per connected master and slave (bytes)
system.tol2bus.pkt_size_system.cpu1.dcache.mem_side::system.l2.cpu_side     63510720                       # Cumulative packet size per connected master and slave (bytes)
system.tol2bus.pkt_size_system.cpu2.icache.mem_side::system.l2.cpu_side      2019840                       # Cumulative packet size per connected master and slave (bytes)
system.tol2bus.pkt_size_system.cpu2.dcache.mem_side::system.l2.cpu_side     63450432                       # Cumulative packet size per connected master and slave (bytes)
system.tol2bus.pkt_size_system.cpu3.icache.mem_side::system.l2.cpu_side      1997696                       # Cumulative packet size per connected master and slave (bytes)
system.tol2bus.pkt_size_system.cpu3.dcache.mem_side::system.l2.cpu_side     63650752                       # Cumulative packet size per connected master and slave (bytes)
system.tol2bus.pkt_size::total              276037696                       # Cumulative packet size per connected master and slave (bytes)
system.tol2bus.snoops                         4111557                       # Total snoops (count)
system.tol2bus.snoopTraffic                  60430272                       # Total snoop traffic (bytes)
system.tol2bus.snoop_fanout::samples          6270825                       # Request fanout histogram
system.tol2bus.snoop_fanout::mean            0.363308                       # Request fanout histogram
system.tol2bus.snoop_fanout::stdev           0.553312                       # Request fanout histogram
system.tol2bus.snoop_fanout::underflows             0      0.00%      0.00% # Request fanout histogram
system.tol2bus.snoop_fanout::0                4143668     66.08%     66.08% # Request fanout histogram
system.tol2bus.snoop_fanout::1                2043923     32.59%     98.67% # Request fanout histogram
system.tol2bus.snoop_fanout::2                  31102      0.50%     99.17% # Request fanout histogram
system.tol2bus.snoop_fanout::3                  36415      0.58%     99.75% # Request fanout histogram
system.tol2bus.snoop_fanout::4                  15717      0.25%    100.00% # Request fanout histogram
system.tol2bus.snoop_fanout::5                      0      0.00%    100.00% # Request fanout histogram
system.tol2bus.snoop_fanout::6                      0      0.00%    100.00% # Request fanout histogram
system.tol2bus.snoop_fanout::7                      0      0.00%    100.00% # Request fanout histogram
system.tol2bus.snoop_fanout::8                      0      0.00%    100.00% # Request fanout histogram
system.tol2bus.snoop_fanout::overflows              0      0.00%    100.00% # Request fanout histogram
system.tol2bus.snoop_fanout::min_value              0                       # Request fanout histogram
system.tol2bus.snoop_fanout::max_value              4                       # Request fanout histogram
system.tol2bus.snoop_fanout::total            6270825                       # Request fanout histogram
system.tol2bus.reqLayer0.occupancy         4323846398                       # Layer occupancy (ticks)
system.tol2bus.reqLayer0.utilization              9.5                       # Layer utilization (%)
system.tol2bus.respLayer5.occupancy         751097428                       # Layer occupancy (ticks)
system.tol2bus.respLayer5.utilization             1.7                       # Layer utilization (%)
system.tol2bus.respLayer4.occupancy          25901458                       # Layer occupancy (ticks)
system.tol2bus.respLayer4.utilization             0.1                       # Layer utilization (%)
system.tol2bus.respLayer7.occupancy         753494056                       # Layer occupancy (ticks)
system.tol2bus.respLayer7.utilization             1.7                       # Layer utilization (%)
system.tol2bus.respLayer6.occupancy          25584155                       # Layer occupancy (ticks)
system.tol2bus.respLayer6.utilization             0.1                       # Layer utilization (%)
system.tol2bus.respLayer1.occupancy         827872908                       # Layer occupancy (ticks)
system.tol2bus.respLayer1.utilization             1.8                       # Layer utilization (%)
system.tol2bus.respLayer0.occupancy         109290682                       # Layer occupancy (ticks)
system.tol2bus.respLayer0.utilization             0.2                       # Layer utilization (%)
system.tol2bus.respLayer3.occupancy         751499057                       # Layer occupancy (ticks)
system.tol2bus.respLayer3.utilization             1.7                       # Layer utilization (%)
system.tol2bus.respLayer2.occupancy          25692080                       # Layer occupancy (ticks)
system.tol2bus.respLayer2.utilization             0.1                       # Layer utilization (%)

---------- End Simulation Statistics   ----------
