Redirecting stdout to /vol1/msoyturk/gem5/results/sssp/dblp.el/prefetch_IndirectMemoryPrefetcher_LIPRP/output.txt
Redirecting stderr to /vol1/msoyturk/gem5/results/sssp/dblp.el/prefetch_IndirectMemoryPrefetcher_LIPRP/error.txt
gem5 Simulator System.  http://gem5.org
gem5 is copyrighted software; use the --copyright option for details.

gem5 compiled Apr 26 2020 13:32:47
gem5 started Apr 26 2020 14:10:24
gem5 executing on draco, pid 2947
command line: /vol1/msoyturk/gem5/build/RISCV/gem5.fast -re --outdir=/vol1/msoyturk/gem5/results/sssp/dblp.el/prefetch_IndirectMemoryPrefetcher_LIPRP --stdout-file=output.txt --stderr-file=error.txt /vol1/msoyturk/gem5/configs/example/my_se.py -c /vol1/msoyturk/gem5/gapbs/sssp -o '-f /vol1/msoyturk/gem5/gapbs/test/graphs/dblp.el' --caches --l1d_size=2kB --l1i_size=2kB --cpu-type=DerivO3CPU -n 4 --mem-size=512MB --l2cache --l2_size=4kB --l2-hwp-type=IndirectMemoryPrefetcher --l2-replacement-policy=LIPRP --l1i_mshrs=4 --l1d_mshrs=4 --l2_mshrs=20 --l1i_write_buffers=8 --l1d_write_buffers=8 --l2_write_buffers=8

info: Standard input is not a terminal, disabling listeners.
Warning: l2-hwp-type is set ( IndirectMemoryPrefetcher ), but the current l2 has a default Hardware Prefetcher of type <class 'm5.params.NullSimObject'> , using the specified by the flag option.
Global frequency set at 1000000000000 ticks per second
**** REAL SIMULATION ****
Read Time:           1.28354
Build Time:          0.25548
Graph has 425957 nodes and 1049866 directed edges for degree: 2
    0          1     0.02950
   36          1     0.00614
  114          2     0.05734
  118          1     0.00624
  120          1     0.00614
  139          1     0.02590
  143          1     0.01121
  147          1     0.02293
  150          2     0.00571
  154          1     0.01279
  156          2     0.01408
  160          1     0.00853
  166          1     0.00572
  168          1     0.00576
  176          1     0.01559
  181          1     0.00584
  182          1     0.00582
  183          1     0.01209
  184          1     0.00513
  186          1     0.00512
  187          1     0.00538
  189          1     0.00515
  191          1     0.01823
  195          1     0.00596
  204          1     0.00943
  208          1     0.00636
  211          3     0.01114
  212          1     0.00813
  214          1     0.00562
  220          1     0.00536
  221          1     0.02492
  222          1     0.00534
  223          1     0.00543
  225          2     0.01845
  227          1     0.01436
  228          1     0.00777
  229          1     0.00516
  230          5     0.00588
  234          1     0.01180
  238          2     0.00569
  239          2     0.01060
  243          1     0.00530
  245          1     0.00802
  247          1     0.00537
  248          2     0.00543
  252          2     0.02586
  254          2     0.00579
  256          4     0.02342
  260          1     0.00757
  262          3     0.00629
  265          3     0.00584
  267          2     0.00966
  268          2     0.00973
  270          2     0.00863
  271          3     0.00532
  272          1     0.00518
  274          3     0.01108
  275          1     0.00503
  276          1     0.00542
  277          1     0.03515
  279          2     0.00608
  280          1     0.00568
  282          1     0.00504
  283          2     0.00978
  284          2     0.00514
  286          1     0.00515
  289          2     0.00561
  291          1     0.01024
  292          2     0.00552
  293          1     0.00494
  294          2     0.00471
  295          2     0.00519
  298          1     0.00484
  299          1     0.00531
  300          1     0.00499
  301          1     0.01880
  302          3     0.00621
  303          2     0.02392
  304          2     0.01565
  305          1     0.01003
  307          1     0.01086
  310          1     0.00495
  311          3     0.01251
  312          1     0.00486
  313          1     0.00458
  314          1     0.00673
  316          2     0.01630
  317          4     0.01098
  318          3     0.01000
  320          1     0.00504
  321          1     0.00537
  323          2     0.01971
  324          1     0.00527
  325          1     0.00484
  326          1     0.00468
  327          3     0.00887
  328          1     0.00458
  329          2     0.00540
  332          3     0.01256
  333          2     0.02695
  334          3     0.02266
  335          3     0.01174
  338          4     0.00862
  341          4     0.01417
  343          3     0.01293
  344          2     0.01179
  345          2     0.01601
  346          1     0.00490
  347          2     0.00911
  349          5     0.02043
  350          1     0.00717
  352          2     0.01300
  353          2     0.00762
  354          2     0.00491
  355          2     0.01196
  356          3     0.01234
  357          3     0.01078
  358          2     0.00942
  359          1     0.00860
  360          3     0.00442
  362          3     0.00468
  363          1     0.00452
  364          2     0.00699
  365          1     0.00509
  366          3     0.00775
  368          3     0.00524
  369          1     0.00466
  370          1     0.00849
  371          5     0.01159
  372          2     0.00822
  373          1     0.00589
  375          1     0.00537
  376          3     0.01688
  377          1     0.00492
  378          1     0.00477
  379          4     0.00485
  380          2     0.01015
  381          2     0.00491
  382          2     0.02558
  383          1     0.01841
  385          4     0.01157
  386          2     0.00677
  387          2     0.00994
  388          2     0.01033
  389          4     0.00660
  390          1     0.01311
  391          4     0.00970
  393          2     0.00532
  394          1     0.00520
  396          2     0.00533
  397          1     0.00752
  398          3     0.00526
  399          4     0.00584
  400          3     0.00559
  401          3     0.00490
  402          1     0.02429
  403          3     0.03435
  404          1     0.00608
  405          3     0.01261
  406          1     0.01757
  407          2     0.00664
  409          5     0.01226
  410          2     0.00577
  411          1     0.00541
  413          2     0.00558
  414          1     0.00586
  415          1     0.01309
  417          3     0.00583
  418          3     0.00732
  419          1     0.00587
  420          2     0.01005
  421          2     0.00821
  422          1     0.00525
  423          2     0.01378
  424          1     0.01157
  425          1     0.00588
  426          1     0.00577
  427          2     0.00573
  428          2     0.01733
  429          3     0.00595
  430          2     0.00569
  431          2     0.00904
  432          1     0.00534
  433          3     0.00955
  434          2     0.00884
  435          2     0.01459
  436          1     0.00998
  437          3     0.00538
  438          3     0.00659
  439          1     0.00555
  441          3     0.00562
  443          1     0.00524
  444          2     0.00527
  445          1     0.01092
  446          4     0.01041
  447          3     0.01022
  448          4     0.00546
  449          2     0.00533
  450          3     0.01063
  451          1     0.00538
  452          2     0.01441
  453          3     0.01099
  454          1     0.01669
  456          3     0.00572
  457          2     0.01810
  458          2     0.00629
  459          1     0.00550
  461          1     0.00985
  462          4     0.01180
  463          3     0.01792
  464          2     0.00553
  465          2     0.00530
  466          3     0.00533
  467          4     0.01860
  468          5     0.01083
  469          2     0.00552
  470          2     0.00572
  471          3     0.00907
  472          3     0.00559
  473          3     0.00658
  474          3     0.01086
  475          5     0.00901
  476          4     0.01023
  477          2     0.00560
  478          2     0.00545
  479          3     0.00836
  480          2     0.00577
  481          2     0.00823
  482          2     0.00526
  483          1     0.00502
  484          1     0.00477
  485          2     0.00802
  486          1     0.01361
  487          5     0.01188
  489          1     0.01122
  490          3     0.00532
  491          4     0.00866
  492          1     0.00863
  493          3     0.01580
  496          2     0.00540
  497          3     0.00936
  498          4     0.03864
  499          2     0.00619
  501          2     0.00960
  502          4     0.00570
  503          1     0.00525
  505          5     0.00565
  506          2     0.00987
  507          3     0.00987
  508          3     0.00482
  509          1     0.00502
  510          2     0.01877
  511          5     0.02582
  512          1     0.01431
  513          3     0.00603
  514          2     0.00574
  515          4     0.01083
  516          2     0.01315
  517          2     0.01609
  518          3     0.02526
  519          3     0.01313
  520          1     0.00916
  521          2     0.00592
  522          3     0.00517
  523          1     0.00519
  527          4     0.01244
  528          4     0.00985
  529          2     0.00551
  530          3     0.00738
  531          5     0.02054
  532          1     0.00863
  533          4     0.01186
  534          1     0.00583
  535          4     0.00516
  537          2     0.00909
  538          1     0.00523
  539          4     0.00573
  540          1     0.00502
  541          4     0.01574
  542          2     0.00560
  543         10     0.01356
  544          3     0.01899
  545          2     0.00572
  546          2     0.00712
  547          3     0.01384
  548          3     0.00538
  549          3     0.00993
  550          4     0.01282
  551          2     0.01211
  552          2     0.00575
  553          1     0.00552
  555          2     0.00526
  556          4     0.00508
  557          1     0.01312
  558          2     0.00668
  559          4     0.01201
  560          2     0.00497
  561          1     0.01336
  562          6     0.00569
  563          1     0.00542
  564          2     0.01030
  565          1     0.00542
  566          5     0.01332
  567          4     0.00615
  568          2     0.01256
  569          3     0.00911
  570          1     0.00553
  571          2     0.00477
  572          3     0.00495
  573          2     0.00518
  574          2     0.00517
  575          1     0.00546
  576          6     0.00890
  577          2     0.00541
  578          1     0.00526
  579          1     0.00526
  581          6     0.01062
  582          2     0.00767
  583          1     0.00564
  584          3     0.01820
  585          1     0.00556
  586          6     0.00979
  587          5     0.00964
  588          3     0.00665
  589          3     0.00543
  590          2     0.01745
  591          4     0.01003
  592          6     0.01784
  594          4     0.00615
  595          1     0.00519
  597          2     0.00471
  598          2     0.00510
  599          3     0.00534
  600          1     0.00508
  601          1     0.00482
  602          1     0.00492
  603          2     0.00911
  604          3     0.00738
  605          5     0.00643
  606          3     0.01788
  607          2     0.00552
  608          3     0.00500
  609          2     0.00775
  610          2     0.00523
  611          2     0.00874
  612          1     0.01303
  614          1     0.01215
  615          3     0.00551
  616          4     0.00515
  617          2     0.01200
  618          3     0.01601
  619          5     0.00627
  622          3     0.01369
  623          5     0.01008
  624          3     0.00944
  625          2     0.00531
  626          3     0.01070
  627          4     0.02291
  628          3     0.00872
  630          4     0.00762
  631          1     0.00606
  632          1     0.00504
  633          4     0.02417
  634          1     0.01368
  635          1     0.00558
  636          1     0.00944
  637          4     0.01855
  638          1     0.00568
  640          4     0.02078
  641          3     0.01161
  642          1     0.00685
  643          2     0.01929
  644          3     0.00616
  645          1     0.00559
  646          1     0.00563
  647          3     0.00570
  648          1     0.00516
  649          1     0.00517
  650          2     0.00500
  652          4     0.02077
  653          4     0.00641
  655          3     0.01089
  656          1     0.00963
  657          1     0.00567
  658          1     0.00501
  660          1     0.00568
  661          1     0.00552
  662          2     0.00559
  663          3     0.01357
  664          3     0.00563
  665          4     0.01678
  666          2     0.00545
  667          3     0.00534
  668          1     0.01186
  669          1     0.01880
  670          1     0.00583
  671          3     0.00795
  672          2     0.00564
  674          1     0.00542
  675          2     0.00611
  677          1     0.01072
  678          3     0.01185
  679          3     0.00546
  680          4     0.00817
  681          4     0.00576
  682          7     0.01227
  683          2     0.00835
  684          1     0.00541
  685          4     0.02685
  686          4     0.01866
  687          4     0.00890
  688          3     0.01486
  690          4     0.00632
  691          1     0.00492
  692          3     0.03557
  693          2     0.00579
  694          3     0.00854
  695          3     0.03046
  696          1     0.00752
  697          6     0.01177
  698          1     0.01133
  699          7     0.01431
  700          2     0.00579
  701          3     0.01347
  702          1     0.00464
  703          3     0.00889
  704          1     0.02525
  705          3     0.01330
  706          2     0.00810
  707          3     0.00604
  708          5     0.01376
  710          6     0.00941
  711          6     0.01035
  712          3     0.01080
  713          3     0.01153
  714          6     0.02152
  715          2     0.01052
  716          1     0.00547
  717          1     0.02920
  718          2     0.01995
  719          4     0.01196
  720          1     0.01243
  721          6     0.01273
  722          3     0.02583
  723          5     0.00844
  724          3     0.00941
  725          6     0.01050
  726          1     0.00843
  727          5     0.00558
  728          3     0.00552
  729          6     0.01967
  730          4     0.02085
  731          3     0.01039
  732          3     0.00668
  733          1     0.00786
  734          5     0.02047
  735          3     0.00660
  736          2     0.00579
  737          4     0.00950
  738          2     0.00568
  739          3     0.00861
  740          2     0.01420
  741          4     0.01040
  742          4     0.00829
  743          4     0.00735
  744          5     0.00953
  745          3     0.01415
  746          3     0.00811
  747          4     0.00697
  748          3     0.00642
  749          1     0.00542
  750          6     0.00684
  751          5     0.01765
  752          5     0.01927
  753          2     0.00560
  754          3     0.00551
  755          5     0.00952
  756          5     0.01470
  757          5     0.01519
  758          1     0.00682
  759          2     0.01813
  760          7     0.02084
  761          4     0.01918
  762          4     0.00699
  763          3     0.01072
  764          4     0.00961
  765          4     0.04753
  766          2     0.00587
  767          2     0.00592
  768          3     0.01138
  769          2     0.01067
  770          4     0.01249
  771          3     0.01056
  772          3     0.02552
  773          2     0.00579
  774          4     0.01170
  775          2     0.00598
  776          2     0.01405
  777          4     0.00768
  778          5     0.03265
  779          6     0.02494
  780          2     0.00791
  781          3     0.01167
  782          2     0.00562
  783          4     0.00591
  784          5     0.01009
  786          3     0.00564
  788          6     0.02020
  789          4     0.01734
  790          5     0.00965
  791          4     0.01050
  792          2     0.01672
  793          4     0.01486
  794          2     0.00617
  796          1     0.00901
  797          3     0.00928
  798          2     0.00681
  799          4     0.01298
  800          2     0.00921
  801          3     0.01471
  802          6     0.02075
  803          3     0.00598
  804          3     0.01673
  805          3     0.01329
  806          3     0.01524
  807          4     0.01284
  808          4     0.01727
  809          4     0.00671
  810          2     0.01422
  811          2     0.00800
  812          5     0.01709
  813          5     0.01056
  814          2     0.01439
  815          2     0.01767
  816          3     0.00606
  817          5     0.00627
  818          5     0.00627
  819          2     0.00584
  820          4     0.00931
  821          2     0.00561
  822          3     0.01133
  823          1     0.00548
  824          8     0.00840
  825          1     0.00518
  826          5     0.01066
  827          8     0.04691
  828          7     0.01558
  829          2     0.00566
  830          7     0.01283
  831          5     0.00611
  832          2     0.00948
  833          2     0.00570
  834          3     0.00707
  835          3     0.01091
  836          4     0.01307
  837          5     0.01034
  838          3     0.01258
  839          6     0.02644
  840          3     0.01018
  841          6     0.02655
  842          8     0.02180
  843          2     0.01087
  844          2     0.00563
  845          4     0.00680
  846          3     0.01145
  847          8     0.02555
  848          6     0.02421
  849          3     0.00599
  850          3     0.01018
  851          3     0.01488
  852          2     0.00940
  853          5     0.01055
  854          6     0.01160
  855          7     0.00891
  856          2     0.00557
  857          2     0.00639
  858          8     0.00570
  859          5     0.01027
  860          3     0.01260
  861          5     0.01462
  862          2     0.01568
  863          3     0.00636
  864          8     0.01728
  865          8     0.01507
  866          7     0.00662
  867          5     0.01077
  868          7     0.00913
  869          7     0.00627
  870          3     0.00572
  871          5     0.01294
  872         10     0.00698
  873          5     0.00793
  874         10     0.01881
  875          4     0.01379
  876          3     0.01456
  877          5     0.01159
  878          6     0.01328
  879          7     0.01580
  880          3     0.01366
  881          2     0.00526
  882          3     0.00568
  883          5     0.00730
  884          4     0.01332
  885          3     0.01335
  886          2     0.00892
  887          3     0.01541
  888          6     0.01082
  889          3     0.00621
  890          5     0.01259
  891          5     0.01326
  892          6     0.00611
  893          2     0.00508
  894          4     0.00558
  895          7     0.02734
  896          5     0.01074
  897          7     0.00602
  898          8     0.02030
  899          3     0.00566
  900          3     0.01142
  901          4     0.00574
  902          2     0.00490
  903          3     0.01465
  904          1     0.01390
  905          3     0.00545
  906          4     0.01398
  907          4     0.01252
  908          5     0.00701
  909          5     0.00811
  910          5     0.00658
  911         10     0.02739
  912          4     0.00642
  913          3     0.00610
  914          2     0.00548
  915          5     0.02745
  916          5     0.01306
  917          4     0.01148
  918          4     0.01315
  919          8     0.01068
  920          6     0.01228
  921          8     0.01736
  922          7     0.02116
  923          8     0.01243
  924          7     0.00774
  925          6     0.01096
  926          4     0.01039
  927          5     0.01274
  928          8     0.01236
  929          3     0.00983
  930          4     0.01937
  931          3     0.01905
  932          5     0.01352
  933          4     0.02014
  934          6     0.00669
  935          5     0.01366
  936          4     0.00739
  937          2     0.00560
  938          4     0.00490
  939          5     0.01058
  940          4     0.00999
  941          7     0.01799
  942          4     0.00815
  943          2     0.00754
  944          4     0.00815
  945          3     0.01221
  946          5     0.00980
  947          4     0.00885
  948          5     0.01491
  949          3     0.02074
  950          4     0.01186
  951          4     0.00566
  952          4     0.01162
  953          7     0.01138
  954          7     0.01237
  955          5     0.00873
  956          7     0.02192
  957         12     0.02225
  958          9     0.01935
  959          7     0.01283
  960          3     0.00515
  961          7     0.01379
  962          5     0.00607
  963          9     0.01128
  964          6     0.04896
  965          4     0.01307
  966          3     0.01085
  967          4     0.00546
  968          8     0.03780
  969          3     0.00638
  970          8     0.01675
  971          5     0.01195
  972          7     0.00961
  973          3     0.01828
  974          5     0.01092
  975          3     0.00796
  976          4     0.00632
  977          7     0.02115
  978         11     0.01968
  979          6     0.01425
  980          3     0.01051
  981          3     0.00802
  982          3     0.01459
  983          6     0.01147
  984          5     0.00961
  985          7     0.02368
  986          6     0.01100
  987          5     0.01824
  988          8     0.01119
  989          5     0.00655
  990          8     0.01773
  991          8     0.01272
  992          7     0.00842
  993          7     0.01402
  994          5     0.01112
  995          5     0.03963
  996          4     0.00855
  997          4     0.01074
  998          7     0.01080
  999         11     0.02784
 1000          5     0.00810
 1001          7     0.00860
 1002          8     0.00688
 1003          6     0.01070
 1004          8     0.01671
 1005          6     0.01599
 1006          6     0.01085
 1007          4     0.01421
 1008          6     0.01022
 1009          9     0.02040
 1010          5     0.01076
 1011          4     0.00706
 1012          7     0.01985
 1013          8     0.01098
 1014          5     0.02164
 1015          6     0.01536
 1016          5     0.00704
 1017          7     0.01224
 1018          2     0.00567
 1019          6     0.00827
 1020          5     0.01322
 1021          7     0.00967
 1022          7     0.01863
 1023          4     0.00623
 1024          6     0.00990
 1025          3     0.00541
 1026          4     0.01309
 1027          9     0.00956
 1028          5     0.01391
 1029          2     0.00775
 1030          6     0.00646
 1031          8     0.01516
 1032          7     0.00635
 1033          2     0.00959
 1034          4     0.01121
 1035          5     0.01795
 1036          6     0.00730
 1037          4     0.00565
 1038          4     0.00595
 1039          5     0.00558
 1040          3     0.00825
 1041          6     0.01799
 1042          5     0.00618
 1043          8     0.02447
 1044          9     0.01034
 1045          3     0.00553
 1046          6     0.00609
 1047          6     0.01443
 1048          2     0.01465
 1049          4     0.00566
 1050          3     0.00547
 1051          5     0.01708
 1052          6     0.02101
 1053          3     0.00636
 1054          3     0.00568
 1055          6     0.01976
 1056          9     0.02558
 1057          4     0.01462
 1058          7     0.00669
 1059          7     0.01831
 1060          6     0.00825
 1061          5     0.00727
 1062          6     0.00936
 1063          6     0.02654
 1064          2     0.00624
 1065          3     0.01657
 1066          6     0.00867
 1067          9     0.01464
 1068          5     0.01938
 1069          9     0.02738
 1070         10     0.02579
 1071          1     0.00608
 1072          4     0.01075
 1073          4     0.00595
 1074          5     0.00624
 1075          5     0.01197
 1076          6     0.01324
 1077          4     0.01252
 1078          4     0.01186
 1079          4     0.01185
 1080          9     0.01374
 1081          9     0.01142
 1082          4     0.00626
 1083          3     0.01083
 1084         10     0.00990
 1085          4     0.01162
 1086          6     0.01594
 1087          5     0.01489
 1088          5     0.01485
 1089          2     0.00617
 1090          7     0.01138
 1091          2     0.01161
 1092          3     0.00624
 1093          8     0.00961
 1094          5     0.00928
 1095          4     0.01152
 1096          8     0.01054
 1097          7     0.02603
 1098          1     0.00587
 1099          4     0.01414
 1100          7     0.01276
 1101          6     0.01414
 1102          7     0.01422
 1103          4     0.01005
 1104          8     0.01920
 1105          5     0.02203
 1106         10     0.01222
 1107          8     0.01161
 1108          9     0.00822
 1109          2     0.00510
 1110          5     0.01753
 1111          5     0.00656
 1112          5     0.01275
 1113          7     0.00681
 1114          4     0.00973
 1115          4     0.00562
 1116          4     0.01342
 1117         10     0.00643
 1118          5     0.02911
 1119          7     0.02858
 1120          6     0.00632
 1121          2     0.00544
 1122          5     0.00625
 1123          3     0.01274
 1124          8     0.01217
 1125          5     0.00596
 1126          2     0.00685
 1127          5     0.02885
 1128          3     0.01158
 1129          6     0.00606
 1130          4     0.01012
 1131          4     0.01266
 1132          9     0.02761
 1133          6     0.01374
 1134          6     0.02294
 1135          2     0.00615
 1136         11     0.01686
 1137          5     0.00936
 1138          5     0.01409
 1139          4     0.00916
 1140          6     0.01305
 1141          6     0.00647
 1142          8     0.02178
 1143          7     0.01122
 1144          2     0.00538
 1145          4     0.01040
 1146          6     0.00800
 1147          6     0.01374
 1148          3     0.01209
 1149          5     0.01347
 1150          4     0.00758
 1151          5     0.01528
 1152          4     0.00564
 1153          5     0.00626
 1154          5     0.00783
 1155          6     0.00561
 1156          4     0.00626
 1157          7     0.01547
 1158          5     0.01198
 1159          4     0.01082
 1160          7     0.01110
 1161          5     0.00608
 1162          4     0.01125
 1163          3     0.00885
 1164          7     0.00665
 1165          6     0.00682
 1166          7     0.00846
 1167          7     0.01055
 1168          7     0.01215
 1169          4     0.00618
 1170          1     0.00479
 1171          4     0.01434
 1172          1     0.00519
 1173          7     0.00603
 1174          5     0.00704
 1175          2     0.00530
 1176          4     0.01706
 1177          2     0.01331
 1178          8     0.01413
 1179          7     0.01328
 1180          7     0.01286
 1181          8     0.00761
 1182          4     0.00593
 1183          2     0.00531
 1184          7     0.01676
 1185          2     0.00582
 1186          3     0.00547
 1187          9     0.01409
 1188          4     0.00940
 1189          6     0.00853
 1190          1     0.00937
 1191          4     0.00954
 1192          3     0.01243
 1193          3     0.02227
 1194          6     0.01175
 1195          7     0.00702
 1196          8     0.01042
 1197          3     0.00625
 1198          3     0.01477
 1199          4     0.01040
 1200          6     0.00601
 1201          5     0.00899
 1202          3     0.00541
 1203          3     0.00768
 1204          5     0.00801
 1205          5     0.00785
 1206          7     0.01101
 1207          7     0.02893
 1208          7     0.01613
 1209          6     0.00703
 1210          3     0.01027
 1211          6     0.00692
 1212          4     0.01267
 1213          4     0.00644
 1214          3     0.00551
 1215          4     0.01400
 1216          8     0.00779
 1217          5     0.01718
 1218          5     0.00638
 1219          2     0.00512
 1220          4     0.00771
 1221          3     0.00554
 1222          4     0.01252
 1223          6     0.00660
 1224          4     0.00754
 1225          5     0.00619
 1226          5     0.00562
 1227          3     0.00558
 1228          2     0.00735
 1229          2     0.00560
 1230          8     0.01672
 1231          3     0.00610
 1232          5     0.00559
 1233          9     0.00631
 1234          9     0.01473
 1235          7     0.01179
 1236          3     0.00984
 1237          2     0.01024
 1238          6     0.00591
 1239          1     0.00543
 1240          3     0.01398
 1241          7     0.01551
 1242          1     0.00544
 1243          4     0.00577
 1244          4     0.00592
 1245          1     0.00521
 1246          8     0.00884
 1247          8     0.00668
 1248          2     0.00531
 1249          2     0.00483
 1250          1     0.00490
 1251          7     0.01091
 1252          5     0.01675
 1253          1     0.00603
 1254          3     0.00532
 1255          2     0.00577
 1256          4     0.00622
 1257          3     0.01645
 1258          4     0.00834
 1259          3     0.01060
 1261          4     0.00607
 1262          2     0.00541
 1263          3     0.00994
 1264          1     0.00534
 1265          2     0.00548
 1266          4     0.00969
 1267          1     0.00533
 1268          6     0.00753
 1269          1     0.00623
 1270          6     0.02618
 1271          1     0.00617
 1272          2     0.01285
 1273          5     0.00565
 1274          1     0.00563
 1275          1     0.00914
 1276          3     0.00543
 1277          4     0.02099
 1278          6     0.01000
 1279          5     0.00592
 1280          4     0.00744
 1281          5     0.00543
 1282          1     0.00511
 1283          4     0.00614
 1284          6     0.01358
 1285          1     0.00524
 1286          6     0.02284
 1287          4     0.00653
 1288          6     0.00628
 1289          1     0.00567
 1291          5     0.01481
 1292          4     0.00612
 1293          1     0.00538
 1294          4     0.01223
 1295          5     0.01082
 1296          3     0.00595
 1297          3     0.00980
 1298          2     0.00535
 1299          2     0.00657
 1300          1     0.00571
 1301          3     0.00578
 1302          3     0.00510
 1303          4     0.00969
 1304          2     0.00851
 1305          5     0.01222
 1306          4     0.00826
 1307          2     0.01578
 1308          3     0.00918
 1309          8     0.01891
 1310          4     0.00622
 1311          7     0.01897
 1312          3     0.00574
 1313          1     0.00517
 1314          1     0.00538
 1315          1     0.00517
 1316          5     0.01085
 1317          5     0.00589
 1318          3     0.00580
 1319          1     0.00496
 1320          3     0.00815
 1321          1     0.01335
 1322          2     0.00513
 1323          1     0.00522
 1324          1     0.00512
 1325          2     0.00547
 1326          3     0.00573
 1327          3     0.00512
 1328          5     0.00498
 1329          4     0.00540
 1330          3     0.00522
 1331          2     0.00787
 1332          3     0.00499
 1333          3     0.00512
 1334          3     0.00542
 1335          1     0.00536
 1336          1     0.01056
 1337          4     0.00541
 1338          1     0.00532
 1339          2     0.00467
 1340          4     0.01053
 1341          3     0.01301
 1342          3     0.01183
 1343          3     0.01185
 1344          3     0.00610
 1345          1     0.00546
 1346          5     0.00546
 1347          2     0.00553
 1348          2     0.01576
 1349          4     0.00603
 1350          1     0.00645
 1351          2     0.00554
 1352          4     0.00780
 1353          2     0.00555
 1354          1     0.00558
 1355          3     0.01222
 1356          2     0.00574
 1357          2     0.00563
 1358          3     0.00826
 1359          2     0.00511
 1360          1     0.00527
 1361          1     0.00536
 1362          2     0.00521
 1363          3     0.01311
 1365          3     0.00545
 1366          5     0.00530
 1367          2     0.00773
 1368          4     0.01208
 1369          1     0.00487
 1370          2     0.00502
 1371          1     0.00509
 1372          2     0.00492
 1373          1     0.00463
 1374          2     0.00501
 1375          2     0.00645
 1376          2     0.00490
 1377          4     0.00454
 1378          2     0.00480
 1379          1     0.02093
 1380          3     0.02034
 1382          1     0.01007
 1383          1     0.00560
 1385          1     0.00565
 1386          4     0.01016
 1387          1     0.00523
 1388          2     0.00578
 1389          3     0.01401
 1391          1     0.00537
 1392          3     0.01001
 1393          5     0.01128
 1394          5     0.01171
 1395          4     0.00691
 1396          1     0.01061
 1397          2     0.00481
 1398          2     0.00494
 1399          2     0.00501
 1400          1     0.00938
 1401          2     0.00534
 1402          1     0.00492
 1403          3     0.01793
 1404          4     0.00570
 1405          2     0.00565
 1406          1     0.01085
 1407          1     0.00545
 1408          2     0.01246
 1409          5     0.00514
 1410          2     0.00864
 1411          2     0.00542
 1412          3     0.00506
 1414          4     0.00797
 1415          1     0.00525
 1416          3     0.00507
 1417          3     0.01000
 1418          2     0.00492
 1420          2     0.02006
 1421          2     0.00938
 1422          3     0.00564
 1423          2     0.00924
 1424          2     0.00517
 1425          3     0.00490
 1426          2     0.00511
 1427          1     0.00501
 1428          1     0.00507
 1431          4     0.01403
 1432          1     0.00528
 1433          1     0.00533
 1434          1     0.00520
 1435          2     0.00513
 1436          4     0.01106
 1438          1     0.00562
 1440          4     0.01448
 1441          2     0.00873
 1442          1     0.00583
 1443          3     0.00566
 1444          4     0.00588
 1447          1     0.00552
 1448          1     0.00531
 1449          1     0.00505
 1450          2     0.00787
 1452          1     0.00532
 1453          2     0.00530
 1454          2     0.00517
 1456          1     0.00848
 1457          1     0.00502
 1458          2     0.00473
 1459          2     0.00496
 1460          4     0.00501
 1461          2     0.00990
 1462          3     0.00581
 1463          4     0.01462
 1464          1     0.00571
 1465          1     0.00853
 1467          1     0.01193
 1468          3     0.01197
 1471          2     0.00570
 1472          2     0.01572
 1473          2     0.00622
 1474          1     0.00560
 1475          2     0.01219
 1476          1     0.00563
 1477          2     0.00530
 1478          3     0.00603
 1479          1     0.00527
 1480          1     0.00514
 1482          4     0.00547
 1483          1     0.00544
 1484          3     0.01259
 1485          1     0.00724
 1486          2     0.01250
 1487          4     0.00803
 1490          2     0.00490
 1491          1     0.00484
 1494          1     0.00536
 1498          1     0.00606
 1499          1     0.00508
 1500          1     0.00469
 1501          2     0.00815
 1502          3     0.00556
 1504          1     0.00536
 1505          1     0.00478
 1506          1     0.00479
 1507          2     0.00769
 1509          1     0.00507
 1510          1     0.00507
 1511          2     0.00470
 1512          1     0.00465
 1513          2     0.01373
 1514          1     0.00565
 1515          2     0.00565
 1517          1     0.00498
 1519          2     0.01516
 1520          1     0.00534
 1521          4     0.01177
 1524          1     0.00811
 1525          5     0.01774
 1526          1     0.00557
 1527          3     0.00518
 1528          3     0.00563
 1530          2     0.00522
 1531          3     0.00801
 1532          2     0.00563
 1534          3     0.00818
 1535          2     0.00554
 1537          1     0.00548
 1539          2     0.00562
 1541          1     0.00549
 1544          3     0.00858
 1546          1     0.00572
 1551          2     0.01121
 1553          1     0.00545
 1555          1     0.00554
 1559          4     0.00680
 1560          1     0.00551
 1561          3     0.00540
 1565          1     0.00538
 1567          1     0.00525
 1568          1     0.01148
 1569          3     0.00666
 1570          2     0.00527
 1571          2     0.00506
 1572          3     0.00843
 1573          1     0.00926
 1574          1     0.00683
 1575          1     0.00560
 1577          2     0.00578
 1578          1     0.00624
 1579          2     0.00562
 1581          1     0.00535
 1583          2     0.00510
 1585          1     0.00871
 1586          1     0.00993
 1587          1     0.00566
 1588          2     0.00543
 1589          1     0.00534
 1590          1     0.00491
 1591          2     0.00524
 1592          2     0.00490
 1594          1     0.00505
 1595          1     0.01066
 1596          2     0.00481
 1597          2     0.01109
 1601          2     0.00516
 1602          2     0.01351
 1603          2     0.00503
 1604          2     0.00528
 1605          1     0.00516
 1611          1     0.00498
 1615          1     0.00531
 1617          1     0.00559
 1621          2     0.01073
 1622          1     0.00549
 1623          1     0.00780
 1624          1     0.00821
 1625          1     0.00509
 1626          1     0.00505
 1628          1     0.00493
 1629          3     0.01235
 1631          1     0.00524
 1633          2     0.00839
 1634          1     0.00479
 1635          2     0.01233
 1636          1     0.00523
 1637          1     0.00775
 1642          2     0.00533
 1644          1     0.00657
 1647          1     0.00880
 1649          1     0.00546
 1650          1     0.00537
 1651          1     0.00510
 1652          2     0.00529
 1653          1     0.00483
 1654          1     0.00526
 1658          1     0.00867
 1659          1     0.00945
 1661          2     0.00568
 1664          1     0.01078
 1668          1     0.00555
 1670          1     0.00543
 1671          2     0.00526
 1672          1     0.00508
 1673          1     0.00524
 1675          1     0.00973
 1676          1     0.00567
 1679          2     0.01286
 1680          1     0.00581
 1681          1     0.00545
 1683          1     0.00539
 1686          1     0.00551
 1687          1     0.00522
 1688          1     0.00546
 1689          1     0.00801
 1690          1     0.00563
 1693          1     0.00511
 1694          1     0.00529
 1695          1     0.00551
 1697          1     0.00562
 1702          1     0.00840
 1704          1     0.00543
 1706          2     0.00545
 1707          1     0.00916
 1708          1     0.00600
 1711          1     0.00579
 1712          2     0.01517
 1714          1     0.00526
 1715          1     0.00518
 1717          1     0.00551
 1718          1     0.00535
 1721          1     0.00573
 1726          2     0.00536
 1729          2     0.01115
 1735          1     0.00813
 1740          1     0.01100
 1741          1     0.00591
 1745          1     0.00849
 1749          1     0.00544
 1750          1     0.00537
 1753          1     0.00563
 1762          1     0.00623
 1763          1     0.00597
 1765          3     0.00614
 1771          2     0.00860
 1772          1     0.00593
 1773          2     0.01128
 1775          1     0.00536
 1778          1     0.00538
 1779          1     0.00901
 1784          1     0.00627
 1785          1     0.00545
 1786          2     0.00551
 1789          1     0.00534
 1790          1     0.00594
 1791          1     0.00606
 1793          1     0.00587
 1796          1     0.00580
 1798          1     0.00545
 1799          1     0.00595
 1805          1     0.00568
 1818          1     0.00583
 1819          2     0.00549
 1826          1     0.00563
 1832          1     0.00568
 1846          1     0.00556
 1847          1     0.00557
 1848          1     0.00541
 1849          2     0.00554
 1851          1     0.00524
 1857          1     0.00539
 1860          1     0.00553
 1866          1     0.00564
 1871          1     0.05939
 1879          1     0.00671
 1883          1     0.00670
 1888          2     0.01020
 1901          2     0.00608
 1902          1     0.00543
 1907          1     0.00499
 1908          1     0.00510
 1914          1     0.00486
 1944          1     0.00875
 1950          1     0.00471
 1958          1     0.00466
 1961          1     0.00539
 2036          1     0.00504
 2044          1     0.00572
 2116          1     0.00898
 2175          1     0.00590
 2269          1     0.00882
 2318          1     0.01522
 2365          1     0.00517
 2375          1     0.00952
 2510          1     0.00528
 2518          1     0.00539
 2555          1     0.00490
 2569          1     0.00471
took 1390 iterations
Trial Time:          0.04164
    0          1     0.01644
   59          1     0.00562
took 2 iterations
Trial Time:          0.00046
    0          1     0.01698
  127          1     0.00576
took 2 iterations
Trial Time:          0.00046
    0          1     0.02699
   63          1     0.01232
  101          1     0.00533
  107          1     0.00495
  111          1     0.01079
  126          1     0.00956
  182          1     0.00871
  184          2     0.00690
  187          1     0.00513
  188          1     0.00543
  196          1     0.00513
  204          1     0.00802
  205          1     0.00519
  231          1     0.00569
  238          1     0.00555
  250          1     0.00550
  318          1     0.00531
  322          1     0.00526
  341          1     0.00462
took 19 iterations
Trial Time:          0.00091
    0          1     0.01608
   15          1     0.00564
took 2 iterations
Trial Time:          0.00046
    0          1     0.02060
   21          1     0.05697
   24          1     0.00919
   32          1     0.02680
   34          1     0.01392
   46          1     0.01821
   48          1     0.04140
   53          1     0.00664
   55          1     0.01804
   60          2     0.01831
   63          1     0.02977
   65          1     0.00597
   66          2     0.01828
   67          3     0.02240
   68          2     0.02365
   69          1     0.01926
   70          1     0.01043
   71          1     0.00632
   72          1     0.01633
   73          1     0.03143
   74          3     0.01701
   76          1     0.00848
   78          1     0.01325
   79          1     0.00697
   81          2     0.00911
   82          1     0.00541
   83          1     0.00523
   86          1     0.00502
   87          1     0.00507
   88          1     0.00508
   89          1     0.01150
   91          1     0.01872
   92          2     0.01041
   93          1     0.00744
   95          2     0.01033
   97          1     0.00623
   98          1     0.01696
   99          1     0.01810
  100          1     0.00890
  101          1     0.00864
  102          1     0.00595
  104          3     0.00671
  106          3     0.00606
  108          1     0.00532
  110          1     0.00534
  111          2     0.01800
  112          1     0.00581
  113          1     0.00537
  114          2     0.06257
  116          2     0.00693
  119          2     0.00896
  121          3     0.01170
  122          2     0.00789
  124          1     0.00592
  125          2     0.00635
  126          2     0.03346
  127          2     0.00696
  128          2     0.00576
  130          1     0.00556
  131          2     0.01459
  132          2     0.00610
  133          5     0.02594
  134          4     0.00883
  135          1     0.02690
  136          2     0.02176
  137          1     0.01615
  138          3     0.00937
  139          1     0.01017
  140          3     0.02438
  141          4     0.02838
  142          1     0.00610
  143          1     0.00890
  144          3     0.02110
  145          2     0.00641
  146          3     0.02531
  147          3     0.01272
  148          3     0.01033
  149          1     0.02155
  150          1     0.00595
  151          2     0.00853
  152          1     0.00888
  153          1     0.00567
  154          4     0.01261
  155          1     0.00520
  156          6     0.01559
  157          5     0.01637
  158          3     0.01555
  159          3     0.02098
  160          8     0.03319
  161          2     0.00613
  162          2     0.01452
  163          1     0.00579
  164          2     0.00514
  165          4     0.02105
  166          4     0.01870
  167          3     0.01394
  168          3     0.02355
  169          3     0.02263
  170          3     0.00597
  171          1     0.00512
  172          1     0.00917
  173          5     0.01316
  174          3     0.01894
  175          3     0.00932
  176          5     0.01115
  177          4     0.02099
  178          2     0.00584
  179          5     0.01695
  180          5     0.00653
  181          3     0.01199
  182          3     0.00998
  184          5     0.02944
  185          4     0.01771
  186          6     0.01551
  187          4     0.01481
  188          5     0.01471
  189          4     0.01485
  190          4     0.05098
  191          1     0.01170
  193          6     0.02550
  194          3     0.00702
  195          2     0.00750
  196          4     0.00627
  197          2     0.00844
  198          1     0.00793
  199          2     0.01007
  200          8     0.01864
  201          2     0.01447
  202          2     0.01282
  203          7     0.02837
  204          7     0.01298
  205          3     0.00726
  206          4     0.00776
  207          3     0.01377
  208          4     0.01016
  209          5     0.02436
  210          8     0.01966
  211          6     0.02486
  212          4     0.01171
  213          4     0.01545
  214          5     0.01014
  215          9     0.03613
  216          6     0.01103
  217          5     0.01016
  218          5     0.01718
  219          6     0.01608
  220          7     0.02067
  221          6     0.01967
  222          3     0.00709
  223          6     0.02213
  224          2     0.01564
  225          3     0.02001
  226          5     0.00775
  227          3     0.02843
  228          4     0.01305
  229          7     0.02011
  230         13     0.03095
  231          7     0.01669
  232          4     0.00647
  233          5     0.02533
  234          7     0.02014
  235          3     0.00810
  236          6     0.01389
  237          3     0.00810
  238          6     0.01147
  239          6     0.01394
  240          3     0.00968
  241          6     0.01888
  242          8     0.02402
  243          8     0.04231
  244          9     0.01222
  245          9     0.02922
  246          6     0.00693
  247         13     0.04115
  248          3     0.01869
  249          8     0.01806
  250          5     0.01867
  251          8     0.00919
  252          8     0.01539
  253         10     0.02669
  254          4     0.02592
  255          5     0.01319
  256          6     0.01744
  257          8     0.02295
  258          9     0.04625
  259          9     0.02205
  260         12     0.03349
  261          8     0.01671
  262          3     0.00626
  263          6     0.02226
  264          2     0.00599
  265         11     0.02501
  266          7     0.02031
  267         11     0.01434
  268          9     0.02987
  269          7     0.00813
  270          8     0.00694
  271          6     0.01221
  272          8     0.05005
  273         11     0.01441
  274          8     0.03019
  275          5     0.01489
  276          7     0.04369
  277          6     0.01141
  278         10     0.03707
  279          4     0.01449
  280         10     0.03393
  281         12     0.03294
  282          5     0.00656
  283         12     0.01458
  284          8     0.00657
  285          6     0.02117
  286          5     0.00645
  287          8     0.03215
  288          4     0.02404
  289          8     0.01649
  290         12     0.06952
  291          8     0.02768
  292         15     0.02408
  293          8     0.00819
  294          9     0.03528
  295          7     0.00743
  296          8     0.02260
  297         10     0.01830
  298          8     0.02006
  299         10     0.04882
  300          8     0.01700
  301          6     0.02237
  302          5     0.00974
  303         14     0.04216
  304          7     0.00978
  305          7     0.01868
  306          8     0.01084
  307          8     0.01196
  308         12     0.03389
  309         13     0.03462
  310          7     0.01806
  311         15     0.02243
  312          6     0.01302
  313         12     0.03144
  314         11     0.02660
  315          8     0.02873
  316          9     0.02620
  317          6     0.00713
  318          7     0.01588
  319         10     0.01930
  320         11     0.01315
  321          9     0.02006
  322         13     0.02772
  323         10     0.01656
  324          8     0.02079
  325         11     0.02020
  326         16     0.07194
  327         18     0.01375
  328         12     0.03222
  329          7     0.01956
  330         12     0.02263
  331          7     0.01960
  332         13     0.02301
  333         10     0.03282
  334          9     0.01375
  335         12     0.01532
  336         12     0.01404
  337         11     0.00897
  338          9     0.01279
  339         11     0.02193
  340          9     0.03567
  341         12     0.02580
  342          8     0.02337
  343         12     0.02627
  344         17     0.01366
  345         17     0.02956
  346          7     0.00814
  347         13     0.02162
  348         12     0.02325
  349         17     0.02556
  350          9     0.02054
  351         12     0.01296
  352         15     0.02059
  353         12     0.00954
  354         15     0.04108
  355         18     0.03755
  356         16     0.01680
  357         15     0.03449
  358         10     0.01803
  359          8     0.01965
  360         19     0.03277
  361         15     0.02746
  362         18     0.02638
  363         12     0.01322
  364         15     0.02769
  365         13     0.02352
  366         26     0.03720
  367         22     0.02174
  368         16     0.03141
  369         12     0.04904
  370         19     0.03425
  371         19     0.03114
  372         21     0.01783
  373         16     0.03107
  374         14     0.03595
  375         20     0.03846
  376         14     0.01462
  377         17     0.02493
  378          7     0.01029
  379         13     0.03591
  380         20     0.03239
  381         11     0.01383
  382         11     0.01173
  383         14     0.02918
  384         15     0.00984
  385         16     0.02583
  386         19     0.02609
  387         23     0.04403
  388         26     0.03090
  389         18     0.05785
  390         18     0.01984
  391         13     0.01387
  392         19     0.02255
  393         18     0.01437
  394         16     0.01218
  395         13     0.03057
  396         19     0.02011
  397         26     0.02672
  398         11     0.01905
  399         13     0.02315
  400         20     0.02327
  401         17     0.03011
  402         17     0.02077
  403         24     0.04114
  404         20     0.01677
  405         23     0.01649
  406         20     0.03423
  407         20     0.07069
  408         16     0.02172
  409         16     0.04408
  410         22     0.03992
  411         17     0.01978
  412         18     0.03407
  413         17     0.03452
  414         26     0.01987
  415         20     0.02987
  416         30     0.03055
  417         24     0.06148
  418         23     0.03610
  419         22     0.01928
  420         31     0.03253
  421         18     0.01936
  422         25     0.05538
  423         23     0.01895
  424         23     0.03836
  425         25     0.03686
  426         22     0.05486
  427         16     0.02736
  428         24     0.03467
  429         18     0.03139
  430         24     0.02285
  431         21     0.03445
  432         20     0.03675
  433         18     0.02125
  434         34     0.04440
  435         28     0.02673
  436         20     0.02603
  437         22     0.02549
  438         24     0.01669
  439         29     0.05324
  440         21     0.02997
  441         27     0.02119
  442         25     0.03684
  443         25     0.01552
  444         18     0.03961
  445         34     0.03330
  446         22     0.03569
  447         21     0.03402
  448         21     0.07513
  449         27     0.04181
  450         29     0.03545
  451         28     0.03582
  452         18     0.02422
  453         25     0.02201
  454         29     0.04503
  455         31     0.02204
  456         24     0.02610
  457         41     0.05947
  458         30     0.03481
  459         28     0.02150
  460         26     0.02608
  461         25     0.01202
  462         30     0.04882
  463         26     0.02434
  464         21     0.02906
  465         35     0.03214
  466         31     0.03327
  467         27     0.02021
  468         31     0.04546
  469         32     0.05642
  470         30     0.02220
  471         26     0.04822
  472         25     0.06944
  473         25     0.02071
  474         26     0.02211
  475         18     0.02075
  476         35     0.05249
  477         41     0.04610
  478         25     0.03369
  479         20     0.03787
  480         32     0.03464
  481         20     0.03444
  482         30     0.03616
  483         35     0.02992
  484         24     0.01421
  485         29     0.02796
  486         29     0.02557
  487         38     0.02163
  488         29     0.03532
  489         24     0.03669
  490         29     0.02217
  491         36     0.03507
  492         16     0.01512
  493         19     0.01837
  494         27     0.03000
  495         32     0.02094
  496         21     0.01299
  497         23     0.04449
  498         28     0.01955
  499         31     0.02391
  500         27     0.01467
  501         33     0.02497
  502         39     0.06981
  503         33     0.03279
  504         34     0.03630
  505         36     0.02997
  506         31     0.02892
  507         26     0.08692
  508         32     0.02041
  509         34     0.02799
  510         33     0.04351
  511         34     0.02869
  512         34     0.01818
  513         33     0.03992
  514         34     0.02384
  515         31     0.06404
  516         33     0.03195
  517         36     0.03105
  518         32     0.03389
  519         41     0.05923
  520         27     0.02567
  521         37     0.02907
  522         43     0.03547
  523         31     0.02417
  524         39     0.04128
  525         29     0.02556
  526         27     0.03780
  527         33     0.03256
  528         33     0.02493
  529         56     0.05266
  530         31     0.04307
  531         33     0.03388
  532         34     0.04740
  533         39     0.04863
  534         36     0.03288
  535         33     0.02452
  536         26     0.01516
  537         44     0.04536
  538         30     0.02531
  539         35     0.03932
  540         46     0.05363
  541         33     0.04941
  542         31     0.02867
  543         34     0.06005
  544         38     0.04700
  545         29     0.03443
  546         38     0.02642
  547         35     0.05851
  548         42     0.02052
  549         33     0.01232
  550         38     0.03967
  551         36     0.03118
  552         31     0.02192
  553         38     0.06869
  554         42     0.05183
  555         37     0.02698
  556         38     0.04160
  557         46     0.04981
  558         45     0.04732
  559         35     0.03990
  560         42     0.04195
  561         42     0.04114
  562         34     0.02021
  563         38     0.03202
  564         28     0.03997
  565         35     0.02712
  566         43     0.03594
  567         45     0.04494
  568         42     0.04748
  569         33     0.03941
  570         41     0.02995
  571         55     0.06282
  572         44     0.05006
  573         38     0.04337
  574         48     0.05514
  575         40     0.04296
  576         54     0.03417
  577         45     0.04321
  578         54     0.05166
  579         44     0.04168
  580         53     0.02890
  581         40     0.03530
  582         54     0.02421
  583         47     0.06419
  584         41     0.02894
  585         38     0.02536
  586         35     0.04134
  587         44     0.04097
  588         51     0.05677
  589         39     0.03994
  590         44     0.02636
  591         44     0.04898
  592         46     0.03987
  593         38     0.03272
  594         48     0.02729
  595         45     0.03633
  596         42     0.02834
  597         45     0.02953
  598         45     0.03819
  599         44     0.03302
  600         39     0.02417
  601         46     0.02432
  602         45     0.03099
  603         46     0.03532
  604         47     0.03222
  605         58     0.03650
  606         37     0.03358
  607         50     0.03381
  608         46     0.02522
  609         51     0.03426
  610         40     0.02029
  611         39     0.03838
  612         47     0.03982
  613         50     0.07427
  614         55     0.03734
  615         46     0.02348
  616         49     0.06512
  617         53     0.05885
  618         53     0.03613
  619         32     0.03718
  620         54     0.05297
  621         46     0.03329
  622         46     0.03616
  623         40     0.02287
  624         48     0.04015
  625         58     0.04374
  626         56     0.07263
  627         59     0.03651
  628         60     0.05403
  629         42     0.04506
  630         45     0.04895
  631         42     0.04039
  632         52     0.03907
  633         52     0.05067
  634         41     0.04266
  635         52     0.04113
  636         60     0.03289
  637         49     0.01966
  638         43     0.02300
  639         46     0.03073
  640         48     0.02446
  641         50     0.03116
  642         47     0.08213
  643         54     0.04952
  644         50     0.06114
  645         46     0.04406
  646         47     0.03588
  647         44     0.02581
  648         58     0.02245
  649         40     0.01761
  650         51     0.04274
  651         55     0.03721
  652         61     0.04285
  653         49     0.04881
  654         54     0.03105
  655         61     0.07381
  656         58     0.03898
  657         52     0.04035
  658         44     0.02149
  659         46     0.03641
  660         53     0.04141
  661         42     0.02252
  662         46     0.03449
  663         62     0.04051
  664         47     0.03312
  665         46     0.04033
  666         55     0.04732
  667         60     0.03764
  668         60     0.05186
  669         47     0.03017
  670         53     0.03565
  671         52     0.03295
  672         55     0.03578
  673         62     0.05929
  674         69     0.03361
  675         43     0.04872
  676         52     0.04505
  677         48     0.03503
  678         60     0.04734
  679         50     0.03855
  680         59     0.02423
  681         51     0.02614
  682         53     0.02926
  683         49     0.02885
  684         65     0.03733
  685         56     0.03931
  686         57     0.03114
  687         37     0.03737
  688         55     0.04706
  689         65     0.05553
  690         61     0.02284
  691         58     0.03083
  692         45     0.01876
  693         55     0.03585
  694         65     0.02921
  695         67     0.03911
  696         46     0.03007
  697         47     0.04816
  698         51     0.03385
  699         48     0.02908
  700         53     0.05099
  701         56     0.02523
  702         50     0.03223
  703         67     0.04715
  704         53     0.03951
  705         62     0.05366
  706         63     0.05510
  707         57     0.03486
  708         47     0.03877
  709         54     0.04280
  710         49     0.02335
  711         51     0.04735
  712         58     0.03052
  713         54     0.04345
  714         58     0.02717
  715         56     0.03921
  716         50     0.02409
  717         47     0.05820
  718         55     0.03952
  719         68     0.03128
  720         41     0.02630
  721         56     0.03938
  722         51     0.02459
  723         45     0.03071
  724         63     0.05908
  725         52     0.04308
  726         48     0.03420
  727         58     0.02807
  728         52     0.02432
  729         50     0.05500
  730         54     0.03028
  731         53     0.05186
  732         50     0.04180
  733         62     0.02967
  734         63     0.03504
  735         66     0.03601
  736         58     0.04197
  737         55     0.02799
  738         71     0.05047
  739         61     0.03550
  740         45     0.01541
  741         60     0.04721
  742         54     0.02915
  743         51     0.03329
  744         58     0.05122
  745         62     0.05361
  746         48     0.04042
  747         55     0.02423
  748         57     0.07907
  749         54     0.04758
  750         64     0.05675
  751         53     0.04062
  752         48     0.03844
  753         56     0.06676
  754         57     0.04656
  755         57     0.04406
  756         57     0.04802
  757         51     0.04965
  758         51     0.03174
  759         51     0.03602
  760         51     0.03515
  761         47     0.02738
  762         60     0.05743
  763         56     0.04349
  764         56     0.03329
  765         54     0.04061
  766         50     0.03755
  767         63     0.02636
  768         51     0.03759
  769         63     0.03088
  770         59     0.05882
  771         58     0.03056
  772         45     0.02534
  773         56     0.06597
  774         65     0.05020
  775         52     0.03178
  776         44     0.01713
  777         57     0.05315
  778         61     0.03067
  779         67     0.03762
  780         72     0.03362
  781         59     0.03030
  782         62     0.05418
  783         34     0.03447
  784         56     0.02954
  785         51     0.02805
  786         58     0.02404
  787         51     0.02588
  788         67     0.03971
  789         45     0.03389
  790         55     0.02983
  791         38     0.02051
  792         61     0.03757
  793         43     0.02627
  794         39     0.01179
  795         52     0.04889
  796         64     0.06610
  797         49     0.05123
  798         44     0.05432
  799         37     0.04914
  800         58     0.05999
  801         50     0.03316
  802         33     0.02243
  803         52     0.04212
  804         71     0.02907
  805         47     0.04622
  806         51     0.04083
  807         59     0.04690
  808         54     0.05094
  809         55     0.04656
  810         49     0.05127
  811         49     0.03722
  812         43     0.02377
  813         55     0.06108
  814         52     0.03966
  815         50     0.02511
  816         59     0.05134
  817         46     0.03218
  818         54     0.02838
  819         57     0.02896
  820         53     0.05208
  821         66     0.03805
  822         47     0.02961
  823         57     0.02180
  824         54     0.05615
  825         43     0.02753
  826         54     0.03268
  827         64     0.05549
  828         53     0.04280
  829         77     0.02682
  830         49     0.03377
  831         56     0.04051
  832         39     0.03252
  833         58     0.06940
  834         50     0.04214
  835         46     0.02976
  836         57     0.04138
  837         58     0.05405
  838         56     0.02657
  839         55     0.02866
  840         59     0.03702
  841         70     0.02989
  842         58     0.03503
  843         52     0.02315
  844         50     0.04441
  845         54     0.03633
  846         52     0.04284
  847         49     0.02645
  848         52     0.02794
  849         43     0.02766
  850         55     0.04677
  851         49     0.03630
  852         66     0.04209
  853         44     0.03303
  854         70     0.04060
  855         55     0.02236
  856         52     0.03314
  857         43     0.04230
  858         51     0.05145
  859         60     0.03488
  860         53     0.03309
  861         55     0.04224
  862         51     0.02874
  863         51     0.03337
  864         45     0.02074
  865         49     0.02926
  866         42     0.04117
  867         54     0.02624
  868         39     0.01659
  869         50     0.02702
  870         55     0.02952
  871         51     0.05157
  872         44     0.03697
  873         43     0.03658
  874         46     0.02713
  875         48     0.03804
  876         53     0.03936
  877         47     0.02643
  878         37     0.02613
  879         52     0.03357
  880         48     0.03728
  881         53     0.03527
  882         46     0.02412
  883         47     0.02582
  884         54     0.03231
  885         59     0.02913
  886         51     0.04278
  887         40     0.02451
  888         54     0.02828
  889         54     0.05112
  890         49     0.02888
  891         47     0.03694
  892         53     0.02059
  893         68     0.05643
  894         52     0.02659
  895         63     0.02165
  896         51     0.04053
  897         57     0.04880
  898         53     0.04903
  899         57     0.02911
  900         66     0.03304
  901         50     0.02016
  902         50     0.02195
  903         41     0.02604
  904         58     0.03604
  905         42     0.01518
  906         47     0.04034
  907         66     0.03959
  908         50     0.02391
  909         47     0.02559
  910         54     0.04637
  911         57     0.02736
  912         49     0.05174
  913         53     0.02395
  914         53     0.02527
  915         38     0.03758
  916         41     0.03746
  917         35     0.02235
  918         41     0.01864
  919         47     0.03112
  920         44     0.04100
  921         45     0.02566
  922         43     0.02313
  923         49     0.01777
  924         46     0.03395
  925         43     0.02515
  926         39     0.02320
  927         48     0.02516
  928         56     0.05134
  929         42     0.03156
  930         62     0.02398
  931         35     0.02849
  932         45     0.01783
  933         60     0.02510
  934         41     0.02887
  935         48     0.04332
  936         49     0.04151
  937         47     0.02519
  938         40     0.01790
  939         62     0.03302
  940         42     0.02457
  941         51     0.03643
  942         53     0.03628
  943         52     0.03172
  944         46     0.02664
  945         49     0.03120
  946         56     0.02109
  947         48     0.04047
  948         52     0.03834
  949         52     0.03226
  950         54     0.02854
  951         53     0.02637
  952         63     0.03146
  953         35     0.02549
  954         57     0.03552
  955         54     0.02167
  956         47     0.03426
  957         42     0.03412
  958         45     0.04232
  959         51     0.02978
  960         43     0.02038
  961         42     0.03243
  962         49     0.03123
  963         45     0.02885
  964         52     0.03027
  965         30     0.02099
  966         43     0.03886
  967         49     0.02943
  968         52     0.03213
  969         53     0.04726
  970         47     0.02889
  971         53     0.02323
  972         49     0.02631
  973         51     0.05427
  974         45     0.03075
  975         43     0.02507
  976         47     0.03154
  977         40     0.02451
  978         38     0.03576
  979         52     0.01709
  980         43     0.02992
  981         51     0.04005
  982         37     0.01507
  983         39     0.02697
  984         42     0.02627
  985         43     0.02995
  986         37     0.01667
  987         32     0.01838
  988         36     0.01301
  989         41     0.02262
  990         50     0.02844
  991         36     0.01508
  992         29     0.02795
  993         50     0.02200
  994         41     0.02241
  995         51     0.01762
  996         40     0.03730
  997         34     0.01624
  998         44     0.01940
  999         59     0.02187
 1000         48     0.03323
 1001         39     0.01270
 1002         42     0.02985
 1003         38     0.02330
 1004         32     0.02678
 1005         31     0.02073
 1006         44     0.01911
 1007         33     0.01642
 1008         38     0.02242
 1009         40     0.03464
 1010         37     0.01558
 1011         42     0.01758
 1012         31     0.02616
 1013         44     0.02636
 1014         41     0.02318
 1015         30     0.02959
 1016         37     0.02264
 1017         42     0.02295
 1018         40     0.02516
 1019         47     0.02308
 1020         30     0.01698
 1021         38     0.02781
 1022         29     0.01575
 1023         41     0.02393
 1024         26     0.02126
 1025         29     0.01314
 1026         31     0.02935
 1027         50     0.01891
 1028         49     0.02519
 1029         43     0.02695
 1030         44     0.02000
 1031         43     0.02104
 1032         41     0.02496
 1033         40     0.02712
 1034         32     0.01512
 1035         34     0.01947
 1036         30     0.01734
 1037         42     0.04040
 1038         29     0.01580
 1039         30     0.01530
 1040         32     0.02436
 1041         36     0.02516
 1042         38     0.02743
 1043         33     0.03880
 1044         38     0.02265
 1045         21     0.02381
 1046         38     0.02823
 1047         37     0.02527
 1048         36     0.02682
 1049         25     0.02391
 1050         34     0.02505
 1051         33     0.03655
 1052         30     0.02044
 1053         32     0.01979
 1054         44     0.01667
 1055         31     0.02095
 1056         38     0.01419
 1057         36     0.03975
 1058         31     0.02750
 1059         44     0.02222
 1060         35     0.02104
 1061         36     0.03289
 1062         43     0.01877
 1063         34     0.01856
 1064         24     0.02186
 1065         24     0.01843
 1066         26     0.01799
 1067         32     0.02006
 1068         27     0.02204
 1069         29     0.01982
 1070         38     0.02955
 1071         43     0.03732
 1072         34     0.02531
 1073         25     0.03017
 1074         31     0.01582
 1075         34     0.02216
 1076         33     0.02533
 1077         48     0.03263
 1078         40     0.02512
 1079         39     0.02792
 1080         34     0.02320
 1081         32     0.02552
 1082         33     0.02002
 1083         28     0.02621
 1084         40     0.01079
 1085         30     0.02425
 1086         37     0.02768
 1087         32     0.02055
 1088         35     0.01882
 1089         35     0.01708
 1090         30     0.01754
 1091         35     0.02710
 1092         20     0.01853
 1093         33     0.01841
 1094         28     0.01620
 1095         36     0.01946
 1096         44     0.02829
 1097         47     0.01755
 1098         32     0.03320
 1099         28     0.02068
 1100         37     0.01698
 1101         25     0.02019
 1102         35     0.01590
 1103         29     0.02026
 1104         27     0.01639
 1105         28     0.01489
 1106         29     0.02333
 1107         35     0.01225
 1108         27     0.03497
 1109         24     0.04063
 1110         38     0.03024
 1111         28     0.01890
 1112         27     0.01483
 1113         42     0.01351
 1114         24     0.01456
 1115         34     0.02074
 1116         32     0.01637
 1117         30     0.02568
 1118         37     0.03164
 1119         27     0.02182
 1120         24     0.01592
 1121         18     0.01257
 1122         26     0.02288
 1123         26     0.02039
 1124         24     0.01468
 1125         30     0.02405
 1126         35     0.02953
 1127         37     0.03855
 1128         27     0.02553
 1129         26     0.01598
 1130         31     0.01612
 1131         21     0.01353
 1132         27     0.01980
 1133         29     0.01181
 1134         32     0.02579
 1135         34     0.01844
 1136         32     0.02735
 1137         25     0.01842
 1138         28     0.02706
 1139         24     0.01276
 1140         33     0.02799
 1141         27     0.01449
 1142         25     0.04174
 1143         24     0.01731
 1144         21     0.01113
 1145         27     0.03174
 1146         27     0.01385
 1147         39     0.07996
 1148         25     0.03961
 1149         17     0.01891
 1150         24     0.01916
 1151         32     0.02250
 1152         24     0.01494
 1153         24     0.01333
 1154         29     0.01307
 1155         26     0.03396
 1156         16     0.01029
 1157         31     0.01660
 1158         29     0.01396
 1159         26     0.01957
 1160         29     0.02956
 1161         23     0.01540
 1162         23     0.01217
 1163         29     0.01612
 1164         33     0.02071
 1165         27     0.02878
 1166         17     0.01329
 1167         38     0.01621
 1168         31     0.03282
 1169         24     0.01863
 1170         29     0.01470
 1171         23     0.01222
 1172         26     0.02428
 1173         18     0.01075
 1174         25     0.03250
 1175         30     0.01590
 1176         20     0.01859
 1177         30     0.01083
 1178         20     0.01881
 1179         26     0.01249
 1180         23     0.02305
 1181         20     0.00959
 1182         30     0.00901
 1183         20     0.01857
 1184         27     0.02558
 1185         21     0.02201
 1186         16     0.00907
 1187         24     0.01533
 1188         21     0.01513
 1189         25     0.01449
 1190         30     0.01516
 1191         27     0.02223
 1192         21     0.00887
 1193         22     0.01834
 1194         20     0.01949
 1195         17     0.03217
 1196         24     0.02215
 1197         23     0.01703
 1198         20     0.01426
 1199         24     0.01288
 1200         18     0.02044
 1201         22     0.02418
 1202         18     0.01794
 1203         22     0.01437
 1204         25     0.01912
 1205         25     0.02879
 1206         24     0.02839
 1207         20     0.01003
 1208         24     0.02017
 1209         26     0.02416
 1210         26     0.02619
 1211         22     0.03725
 1212         20     0.01902
 1213         25     0.02217
 1214         25     0.03705
 1215         21     0.01735
 1216         23     0.01479
 1217         25     0.01513
 1218         16     0.01554
 1219         16     0.01159
 1220         26     0.02016
 1221         20     0.01581
 1222         27     0.01621
 1223         25     0.01516
 1224         31     0.01963
 1225         10     0.01284
 1226         21     0.01838
 1227         24     0.01411
 1228         21     0.02347
 1229         23     0.01857
 1230         22     0.01171
 1231         19     0.01464
 1232         21     0.02138
 1233         18     0.00865
 1234         21     0.03007
 1235         21     0.01296
 1236         23     0.03388
 1237         26     0.01077
 1238         24     0.01548
 1239         12     0.03541
 1240         26     0.01913
 1241         18     0.01207
 1242         25     0.02085
 1243         16     0.01113
 1244         21     0.03168
 1245         23     0.01086
 1246         13     0.00848
 1247         23     0.03123
 1248         12     0.01267
 1249         22     0.01729
 1250         18     0.02163
 1251         24     0.01357
 1252         18     0.02129
 1253         34     0.02882
 1254         25     0.01349
 1255         25     0.01436
 1256         10     0.01386
 1257         15     0.00862
 1258         27     0.01919
 1259         23     0.02804
 1260         16     0.00966
 1261         16     0.01281
 1262         16     0.01208
 1263         12     0.02238
 1264         22     0.01914
 1265         16     0.02147
 1266         19     0.02671
 1267         21     0.01666
 1268         28     0.02135
 1269         13     0.01196
 1270         18     0.02078
 1271         19     0.01298
 1272         24     0.02048
 1273         18     0.00869
 1274         12     0.02094
 1275         17     0.01573
 1276         17     0.01286
 1277         21     0.03049
 1278         12     0.02324
 1279         14     0.00740
 1280         19     0.01329
 1281         17     0.02018
 1282         15     0.01577
 1283         24     0.02832
 1284         18     0.02056
 1285         22     0.01272
 1286         14     0.00894
 1287         20     0.01653
 1288         22     0.01264
 1289         19     0.01489
 1290         23     0.02500
 1291         18     0.01156
 1292         22     0.01338
 1293         22     0.02017
 1294         13     0.00839
 1295         22     0.01209
 1296         27     0.02487
 1297         10     0.01360
 1298         20     0.01785
 1299         11     0.00717
 1300         18     0.00857
 1301         23     0.02213
 1302         22     0.01965
 1303         18     0.01022
 1304         15     0.00886
 1305          8     0.01136
 1306         16     0.00758
 1307         16     0.01984
 1308         16     0.01238
 1309         17     0.01480
 1310         22     0.01779
 1311         19     0.01725
 1312         14     0.01763
 1313         24     0.01521
 1314         22     0.02717
 1315         14     0.01277
 1316         19     0.01424
 1317         21     0.00975
 1318         21     0.02600
 1319         13     0.01541
 1320         23     0.02144
 1321         26     0.01432
 1322         17     0.01459
 1323         15     0.01410
 1324         11     0.00947
 1325         18     0.01090
 1326         20     0.01892
 1327         11     0.00762
 1328         24     0.00864
 1329          7     0.00875
 1330          6     0.00792
 1331         12     0.00690
 1332         20     0.02809
 1333         14     0.01061
 1334         13     0.01397
 1335         15     0.01429
 1336         12     0.00943
 1337         16     0.02172
 1338         18     0.01756
 1339         13     0.02299
 1340         10     0.01466
 1341         14     0.00963
 1342         15     0.00965
 1343         15     0.01099
 1344         14     0.01228
 1345         17     0.01261
 1346         14     0.01751
 1347         14     0.00785
 1348         21     0.01187
 1349         15     0.01057
 1350         20     0.00993
 1351         14     0.01144
 1352          9     0.00796
 1353         15     0.01602
 1354          8     0.01372
 1355         12     0.01149
 1356          8     0.00612
[...]
 2332          1     0.00540
 2336          1     0.00816
 2337          1     0.01378
 2338          3     0.00611
 2339          1     0.00558
 2340          2     0.00530
 2341          1     0.00500
 2342          1     0.00530
 2343          1     0.00539
 2344          2     0.00885
 2347          1     0.00472
 2348          1     0.00467
 2349          3     0.00535
 2350          2     0.00500
 2351          1     0.00496
 2352          2     0.02230
 2354          2     0.00556
 2360          1     0.00554
 2361          2     0.00889
 2362          2     0.00561
 2364          1     0.00571
 2367          2     0.00573
 2369          1     0.00535
 2370          2     0.00611
 2373          1     0.01116
 2375          2     0.00613
 2377          1     0.01418
 2379          2     0.00556
 2381          1     0.00549
 2383          1     0.00517
 2386          2     0.01774
 2387          2     0.00819
 2388          2     0.00534
 2389          3     0.01038
 2392          1     0.00535
 2394          1     0.00533
 2396          1     0.00516
 2398          2     0.00544
 2399          1     0.00550
 2400          3     0.01890
 2401          1     0.00526
 2402          1     0.01524
 2404          2     0.00590
 2405          2     0.00534
 2406          3     0.00546
 2408          2     0.01035
 2410          1     0.01322
 2411          2     0.01437
 2412          3     0.00585
 2415          2     0.00584
 2417          1     0.00536
 2418          1     0.00519
 2421          2     0.00870
 2422          1     0.00970
 2423          1     0.00827
 2424          2     0.00908
 2426          1     0.00540
 2427          1     0.00507
 2429          1     0.01064
 2430          3     0.00843
 2431          1     0.00553
 2434          1     0.00834
 2435          1     0.00551
 2437          2     0.00583
 2440          1     0.00543
 2441          1     0.00551
 2442          2     0.00559
 2447          2     0.00541
 2449          1     0.01185
 2450          1     0.00508
 2451          1     0.01632
 2452          2     0.00947
 2453          1     0.00500
 2454          4     0.00537
 2457          1     0.00547
 2458          2     0.00649
 2460          2     0.00539
 2462          2     0.00565
 2463          1     0.00496
 2464          2     0.00536
 2466          1     0.00547
 2467          3     0.00631
 2469          1     0.00540
 2471          1     0.00553
 2474          1     0.00525
 2475          2     0.00932
 2477          1     0.00564
 2480          2     0.00526
 2481          1     0.00852
 2484          2     0.01474
 2485          1     0.00556
 2487          1     0.00559
 2488          1     0.01174
 2491          1     0.00616
 2493          1     0.00544
 2494          2     0.00573
 2495          3     0.00861
 2496          1     0.00518
 2498          1     0.00552
 2505          2     0.00523
 2514          1     0.00527
 2518          1     0.00605
 2530          4     0.00556
 2531          1     0.00536
 2533          1     0.01045
 2538          1     0.01057
 2540          1     0.00662
 2541          1     0.00560
 2546          1     0.00559
 2549          1     0.00591
 2552          2     0.00592
 2555          1     0.00570
 2559          1     0.00562
 2560          2     0.01174
 2561          2     0.00613
 2562          1     0.00707
 2571          1     0.00554
 2574          1     0.00571
 2589          1     0.00607
 2593          1     0.00612
 2600          1     0.00582
 2601          2     0.01110
 2603          1     0.00599
 2606          1     0.00837
 2607          1     0.00594
 2612          1     0.01027
 2615          1     0.00573
 2619          1     0.00600
 2623          1     0.01004
 2625          1     0.01353
 2626          1     0.00579
 2628          1     0.00599
 2634          1     0.00553
 2635          1     0.00583
 2638          1     0.00547
 2641          1     0.00561
 2642          1     0.00543
 2644          1     0.00790
 2645          1     0.00573
 2646          1     0.00536
 2648          1     0.00557
 2649          1     0.01013
 2651          1     0.00557
 2655          1     0.00561
 2657          1     0.00604
 2660          1     0.01449
 2663          1     0.00808
 2669          1     0.00584
 2671          1     0.00517
 2672          1     0.00512
 2680          1     0.01062
 2689          1     0.01117
 2692          1     0.00605
 2693          1     0.00570
 2702          1     0.00527
 2703          1     0.00566
 2713          1     0.00558
 2719          1     0.00821
 2721          1     0.00505
 2723          2     0.00539
 2731          1     0.00836
 2738          1     0.00552
 2741          1     0.00863
 2742          1     0.00554
 2745          1     0.00886
 2747          1     0.00588
 2762          1     0.00954
 2777          1     0.00564
 2778          1     0.00572
 2780          1     0.01027
 2781          1     0.00571
 2783          1     0.00573
 2786          1     0.01111
 2787          1     0.00613
 2797          1     0.00563
 2800          1     0.00557
 2802          1     0.00558
 2804          1     0.00550
 2808          2     0.00585
 2817          1     0.00575
 2834          1     0.00578
 2846          2     0.01443
 2851          1     0.00575
 2855          1     0.00591
 2867          2     0.01755
 2870          1     0.00612
 2893          1     0.00603
 2906          1     0.00573
 2908          2     0.00966
 2915          1     0.00571
 2917          1     0.00517
 2930          1     0.01049
 2943          1     0.00615
 2962          1     0.00651
 2975          1     0.00634
 2992          1     0.00562
 2993          1     0.00850
 2996          1     0.00593
 2997          1     0.00507
 3001          1     0.08597
 3036          1     0.00622
 3046          1     0.00608
 3050          1     0.00605
 3052          1     0.00553
 3059          2     0.01266
 3060          1     0.00607
 3064          1     0.00595
 3067          1     0.00545
 3068          1     0.00587
 3082          1     0.01047
 3115          1     0.00654
 3159          1     0.01186
 3162          1     0.00609
 3180          1     0.00625
 3181          1     0.01512
 3227          1     0.00610
 3245          1     0.00630
 3273          1     0.00596
 3295          1     0.00569
 3296          1     0.01360
 3307          1     0.00582
 3314          1     0.00523
 3315          1     0.00570
 3324          1     0.00571
 3351          1     0.00556
 3359          1     0.00519
 3373          1     0.01314
 3377          1     0.01022
 3382          2     0.01137
 3393          1     0.01417
 3405          2     0.00597
 3419          1     0.00583
 3425          1     0.00671
 3431          1     0.00560
 3439          1     0.00575
 3460          1     0.01111
 3466          1     0.00823
 3470          1     0.00568
 3475          1     0.00555
 3492          1     0.00540
 3515          1     0.00519
 3530          1     0.00526
 3546          1     0.00526
 3547          1     0.00542
 3549          1     0.00522
 3551          1     0.00568
 3568          1     0.00539
 3573          1     0.00522
 3583          1     0.00530
 3607          1     0.00529
 3608          1     0.00861
 3613          1     0.00544
 3630          1     0.00566
 3648          1     0.00520
 3656          1     0.00507
took 2405 iterations
Trial Time:          0.08619
    0          1     0.02085
  200          1     0.00632
  204          1     0.00582
  232          1     0.00514
took 4 iterations
Trial Time:          0.00052
    0          1     0.03322
   44          1     0.01603
   61          1     0.02217
   69          1     0.01408
   71          1     0.00660
  105          1     0.00988
  107          1     0.00590
  108          1     0.00639
  126          1     0.01845
  143          1     0.00862
  146          2     0.01518
  152          1     0.01181
  153          1     0.00611
  161          1     0.00603
  167          2     0.02900
  174          1     0.01766
  183          1     0.00697
  189          1     0.00941
  195          1     0.00662
  204          1     0.01973
  205          2     0.00680
  208          1     0.00606
  209          1     0.00586
  210          1     0.00538
  211          1     0.00574
  214          2     0.00591
  218          1     0.00565
  219          1     0.01586
  225          1     0.00600
  226          1     0.00770
  229          1     0.01235
  230          1     0.00601
  234          1     0.00573
  239          1     0.00541
  240          1     0.00537
  242          1     0.00555
  247          1     0.01872
  249          1     0.00614
  253          1     0.00531
  256          1     0.00776
  258          1     0.00519
  259          2     0.00501
  264          1     0.00507
  265          1     0.00516
  267          1     0.00511
  270          2     0.01467
  271          1     0.00604
  286          1     0.00549
  296          1     0.00520
  298          4     0.00920
  299          1     0.01627
  300          1     0.00842
  301          1     0.01117
  302          1     0.00524
  303          1     0.00498
  305          1     0.00572
  306          1     0.01693
  310          1     0.00809
  313          1     0.01025
  314          1     0.00885
  315          2     0.00929
  316          1     0.00962
  317          1     0.00508
  318          1     0.00707
  319          1     0.00512
  320          2     0.01461
  323          2     0.00802
  326          1     0.00549
  327          1     0.00528
  328          1     0.00547
  329          1     0.00530
  330          1     0.00846
  332          2     0.01048
  333          1     0.00744
  338          1     0.00523
  341          2     0.01130
  342          2     0.00536
  348          3     0.00753
  352          1     0.00523
  353          1     0.00540
  354          1     0.00489
  356          1     0.00558
  358          1     0.01113
  362          3     0.02089
  364          1     0.00533
  365          1     0.00481
  366          1     0.00586
  368          2     0.00983
  369          1     0.00558
  371          1     0.00503
  373          1     0.05076
  377          2     0.00927
  378          3     0.00614
  381          1     0.01112
  382          1     0.00539
  384          1     0.00529
  385          1     0.00535
  386          2     0.00531
  388          2     0.00936
  390          2     0.00528
  391          2     0.01369
  394          1     0.00556
  395          1     0.00529
  398          1     0.00512
  399          1     0.00519
  400          1     0.00524
  403          1     0.00539
  408          1     0.00479
  409          1     0.00479
  410          2     0.00518
  415          1     0.00503
  417          1     0.00612
  418          2     0.00503
  422          2     0.01390
  423          1     0.00551
  426          2     0.01040
  428          1     0.01759
  429          3     0.00552
  431          1     0.00500
  436          3     0.00648
  439          1     0.00882
  440          1     0.00536
  441          1     0.00516
  442          1     0.00526
  445          1     0.00516
  446          3     0.00764
  448          1     0.01289
  449          2     0.01487
  451          1     0.00551
  452          2     0.00530
  453          3     0.01479
  455          2     0.01710
  459          1     0.00972
  461          1     0.00552
  462          1     0.00601
  464          1     0.00513
  467          1     0.01396
  468          2     0.00618
  470          1     0.00508
  471          1     0.00509
  473          1     0.00813
  474          1     0.00492
  477          2     0.00829
  479          2     0.01188
  482          5     0.01460
  484          1     0.00529
  485          2     0.00503
  486          3     0.01000
  487          1     0.00508
  488          1     0.00528
  489          1     0.00541
  491          2     0.00563
  492          1     0.00834
  494          1     0.01584
  496          1     0.00527
  497          1     0.00484
  500          1     0.00498
  502          2     0.00495
  503          1     0.00517
  504          1     0.00717
  509          1     0.00542
  511          1     0.00492
  513          2     0.00515
  515          1     0.00508
  517          2     0.01569
  519          2     0.01028
  520          3     0.01861
  521          2     0.00824
  522          2     0.01099
  523          1     0.00585
  527          1     0.00567
  529          1     0.00551
  530          1     0.00541
  531          1     0.00523
  532          2     0.01011
  533          1     0.00531
  534          1     0.00494
  535          2     0.00815
  536          1     0.00526
  538          1     0.00542
  543          1     0.00514
  545          1     0.00521
  546          3     0.01419
  548          1     0.00556
  551          2     0.02163
  552          3     0.00631
  553          1     0.00547
  555          1     0.00948
  556          2     0.01226
  557          1     0.00515
  558          2     0.00587
  562          1     0.00558
  565          1     0.00829
  566          1     0.00526
  568          1     0.00944
  569          1     0.00502
  573          1     0.01122
  574          1     0.00867
  575          4     0.01493
  576          1     0.00922
  578          1     0.00494
  580          3     0.01265
  581          1     0.01251
  582          2     0.00557
  583          1     0.00542
  585          1     0.00842
  586          1     0.01554
  587          1     0.00603
  588          2     0.00889
  590          2     0.00777
  591          1     0.00532
  593          1     0.00543
  594          1     0.00750
  596          1     0.00823
  597          1     0.00531
  601          1     0.00520
  602          3     0.00558
  603          1     0.00503
  604          1     0.00535
  605          1     0.00531
  606          1     0.00547
  607          2     0.00603
  611          4     0.02712
  612          3     0.00846
  613          2     0.00568
  614          1     0.00540
  616          1     0.00595
  618          1     0.00585
  623          1     0.00513
  624          1     0.01024
  626          1     0.00498
  628          1     0.00516
  630          1     0.00533
  632          1     0.00541
  633          1     0.00539
  639          3     0.00528
  643          3     0.00508
  644          1     0.00869
  645          2     0.00558
  647          1     0.00600
  648          1     0.02899
  649          2     0.01850
  651          2     0.00661
  653          2     0.01169
  654          1     0.00620
  658          2     0.01064
  659          1     0.00607
  663          1     0.00946
  664          1     0.00554
  665          1     0.00989
  666          2     0.00625
  667          1     0.00567
  669          2     0.01063
  670          1     0.00593
  671          1     0.00562
  672          1     0.00560
  673          4     0.00593
  674          1     0.01944
  676          1     0.00617
  678          1     0.00620
  680          2     0.00616
  682          2     0.00856
  686          1     0.00568
  687          1     0.00563
  689          1     0.00964
  692          3     0.00592
  693          1     0.00578
  694          1     0.00581
  700          1     0.00533
  701          1     0.00865
  702          1     0.01678
  703          1     0.00606
  704          1     0.00863
  706          2     0.00644
  707          1     0.00980
  709          1     0.00575
  711          3     0.00681
  715          2     0.00562
  716          2     0.00881
  717          1     0.00569
  720          1     0.00566
  721          1     0.00569
  722          1     0.00533
  723          1     0.00540
  726          1     0.00573
  727          1     0.00560
  728          2     0.00518
  729          1     0.00517
  730          2     0.00517
  731          2     0.00566
  732          2     0.01099
  733          2     0.00542
  734          1     0.00556
  735          2     0.01088
  736          1     0.00539
  739          2     0.00614
  741          1     0.00584
  746          1     0.00586
  747          1     0.00539
  749          2     0.00559
  750          1     0.00550
  751          1     0.00590
  753          1     0.00520
  754          1     0.00547
  756          1     0.00560
  762          1     0.00561
  763          1     0.01115
  764          1     0.00590
  765          1     0.00553
  766          1     0.00502
  767          1     0.00537
  769          1     0.00550
  770          1     0.00557
  772          1     0.00500
  775          2     0.00828
  777          1     0.00560
  778          1     0.00533
  781          1     0.00846
  783          1     0.00566
  787          2     0.01071
  788          1     0.00575
  789          1     0.00576
  792          1     0.00855
  793          1     0.00531
  794          1     0.00560
  799          1     0.00564
  804          1     0.00561
  807          1     0.00552
  809          1     0.00524
  814          1     0.00551
  815          1     0.00562
  818          1     0.00603
  819          1     0.00539
  824          1     0.00598
  828          1     0.00600
  835          1     0.00636
  836          1     0.01289
  842          1     0.01098
  844          1     0.00639
  849          1     0.00565
  850          1     0.00585
  855          1     0.00634
  866          1     0.00581
  867          1     0.01405
  872          1     0.00558
  877          1     0.00996
  878          1     0.00569
  880          1     0.00540
  881          2     0.00561
  891          1     0.00556
  895          1     0.01071
  896          1     0.00562
  897          1     0.00568
  904          1     0.01139
  907          1     0.00551
  911          1     0.00984
  917          1     0.00541
  922          1     0.01221
  925          1     0.00589
  927          2     0.00886
  943          1     0.00571
  950          1     0.00575
  951          1     0.01869
  968          1     0.00989
  972          1     0.00580
  974          1     0.00550
  975          1     0.00825
  976          1     0.00569
  978          2     0.00617
  982          1     0.00564
  985          1     0.00755
  988          2     0.00523
 1005          1     0.00520
 1012          1     0.00527
 1013          1     0.00496
 1015          1     0.00549
 1020          1     0.00522
 1023          1     0.00505
 1026          1     0.00468
 1033          1     0.00503
 1035          1     0.00510
 1039          1     0.00547
 1045          1     0.00550
 1046          1     0.00543
 1050          1     0.00499
 1057          1     0.00533
 1061          1     0.00487
 1069          2     0.00510
 1072          1     0.00976
 1076          1     0.04110
 1084          2     0.00641
 1094          1     0.00649
 1096          1     0.00672
 1107          1     0.00641
 1117          1     0.00649
 1124          1     0.00654
 1144          1     0.00621
 1146          1     0.00629
 1167          1     0.00626
 1193          1     0.00636
 1219          1     0.00538
 1274          1     0.00515
took 402 iterations
Trial Time:          0.01150
    0          1     0.02692
   71          1     0.00638
   93          1     0.00620
  174          1     0.00573
  192          1     0.00521
took 5 iterations
Trial Time:          0.00055
    0          1     0.01785
  136          1     0.00547
took 2 iterations
Trial Time:          0.00046
    0          1     0.01859
  134          1     0.00624
  226          1     0.00556
took 3 iterations
Trial Time:          0.00049
    0          1     0.01648
   64          1     0.00590
   66          1     0.00536
took 3 iterations
Trial Time:          0.00048
Average Time:        0.01435
Exiting @ tick 1870895624000 because exiting with last active thread context
