
---------- Begin Simulation Statistics ----------
final_tick                               1054183971000                       # Number of ticks from beginning of simulation (restored from checkpoints and never reset)
host_inst_rate                                  70838                       # Simulator instruction rate (inst/s)
host_mem_usage                                 701844                       # Number of bytes of host memory used
host_op_rate                                    71070                       # Simulator op (including micro ops) rate (op/s)
host_seconds                                 15608.70                       # Real time elapsed on the host
host_tick_rate                               67538231                       # Simulator tick rate (ticks/s)
sim_freq                                 1000000000000                       # Frequency of simulated ticks
sim_insts                                  1105681345                       # Number of instructions simulated
sim_ops                                    1109306748                       # Number of ops (including micro ops) simulated
sim_seconds                                  1.054184                       # Number of seconds simulated
sim_ticks                                1054183971000                       # Number of ticks simulated
system.cpu0.branchPred.BTBCorrect                   0                       # Number of correct BTB predictions (this stat may not work properly.
system.cpu0.branchPred.BTBHitPct            86.951224                       # BTB Hit Percentage
system.cpu0.branchPred.BTBHits              143828393                       # Number of BTB hits
system.cpu0.branchPred.BTBLookups           165412730                       # Number of BTB lookups
system.cpu0.branchPred.RASInCorrect                 0                       # Number of incorrect RAS predictions.
system.cpu0.branchPred.condIncorrect         20149705                       # Number of conditional branches incorrect
system.cpu0.branchPred.condPredicted        222700935                       # Number of conditional branches predicted
system.cpu0.branchPred.indirectHits          20318245                       # Number of indirect target hits.
system.cpu0.branchPred.indirectLookups       20463317                       # Number of indirect predictor lookups.
system.cpu0.branchPred.indirectMisses          145072                       # Number of indirect misses.
system.cpu0.branchPred.lookups              284664357                       # Number of BP lookups
system.cpu0.branchPred.usedRAS                      0                       # Number of times the RAS was used to get a target.
system.cpu0.branchPredindirectMispredicted      1864020                       # Number of mispredicted indirect branches.
system.cpu0.commit.amos                       1811483                       # Number of atomic instructions committed
system.cpu0.commit.branchMispredicts         12173009                       # The number of times a branch was mispredicted
system.cpu0.commit.branches                 260653003                       # Number of branches committed
system.cpu0.commit.bw_lim_events             32275397                       # number cycles where commit BW limit reached
system.cpu0.commit.commitNonSpecStalls        5441485                       # The number of times commit has been forced to stall to communicate backwards
system.cpu0.commit.commitSquashedInsts       92237507                       # The number of squashed insts skipped by commit
system.cpu0.commit.committedInsts          1050623748                       # Number of instructions committed
system.cpu0.commit.committedOps            1052437775                       # Number of ops (including micro ops) committed
system.cpu0.commit.committed_per_cycle::samples   1904297059                       # Number of insts commited each cycle
system.cpu0.commit.committed_per_cycle::mean     0.552665                       # Number of insts commited each cycle
system.cpu0.commit.committed_per_cycle::stdev     1.352022                       # Number of insts commited each cycle
system.cpu0.commit.committed_per_cycle::underflows            0      0.00%      0.00% # Number of insts commited each cycle
system.cpu0.commit.committed_per_cycle::0   1408662898     73.97%     73.97% # Number of insts commited each cycle
system.cpu0.commit.committed_per_cycle::1    293088630     15.39%     89.36% # Number of insts commited each cycle
system.cpu0.commit.committed_per_cycle::2     72846198      3.83%     93.19% # Number of insts commited each cycle
system.cpu0.commit.committed_per_cycle::3     62580711      3.29%     96.48% # Number of insts commited each cycle
system.cpu0.commit.committed_per_cycle::4     20092923      1.06%     97.53% # Number of insts commited each cycle
system.cpu0.commit.committed_per_cycle::5      5957741      0.31%     97.84% # Number of insts commited each cycle
system.cpu0.commit.committed_per_cycle::6      3996884      0.21%     98.05% # Number of insts commited each cycle
system.cpu0.commit.committed_per_cycle::7      4795677      0.25%     98.31% # Number of insts commited each cycle
system.cpu0.commit.committed_per_cycle::8     32275397      1.69%    100.00% # Number of insts commited each cycle
system.cpu0.commit.committed_per_cycle::overflows            0      0.00%    100.00% # Number of insts commited each cycle
system.cpu0.commit.committed_per_cycle::min_value            0                       # Number of insts commited each cycle
system.cpu0.commit.committed_per_cycle::max_value            8                       # Number of insts commited each cycle
system.cpu0.commit.committed_per_cycle::total   1904297059                       # Number of insts commited each cycle
system.cpu0.commit.fp_insts                        65                       # Number of committed floating point instructions.
system.cpu0.commit.function_calls            20856385                       # Number of function calls committed.
system.cpu0.commit.int_insts               1015824816                       # Number of committed integer instructions.
system.cpu0.commit.loads                    326202111                       # Number of loads committed
system.cpu0.commit.membars                    3625383                       # Number of memory barriers committed
system.cpu0.commit.op_class_0::No_OpClass      3625392      0.34%      0.34% # Class of committed instruction
system.cpu0.commit.op_class_0::IntAlu       583817829     55.47%     55.82% # Class of committed instruction
system.cpu0.commit.op_class_0::IntMult        8030383      0.76%     56.58% # Class of committed instruction
system.cpu0.commit.op_class_0::IntDiv         1811041      0.17%     56.75% # Class of committed instruction
system.cpu0.commit.op_class_0::FloatAdd             0      0.00%     56.75% # Class of committed instruction
system.cpu0.commit.op_class_0::FloatCmp             6      0.00%     56.75% # Class of committed instruction
system.cpu0.commit.op_class_0::FloatCvt            16      0.00%     56.75% # Class of committed instruction
system.cpu0.commit.op_class_0::FloatMult            0      0.00%     56.75% # Class of committed instruction
system.cpu0.commit.op_class_0::FloatMultAcc            0      0.00%     56.75% # Class of committed instruction
system.cpu0.commit.op_class_0::FloatDiv             2      0.00%     56.75% # Class of committed instruction
system.cpu0.commit.op_class_0::FloatMisc            6      0.00%     56.75% # Class of committed instruction
system.cpu0.commit.op_class_0::FloatSqrt            0      0.00%     56.75% # Class of committed instruction
system.cpu0.commit.op_class_0::SimdAdd              0      0.00%     56.75% # Class of committed instruction
system.cpu0.commit.op_class_0::SimdAddAcc            0      0.00%     56.75% # Class of committed instruction
system.cpu0.commit.op_class_0::SimdAlu              0      0.00%     56.75% # Class of committed instruction
system.cpu0.commit.op_class_0::SimdCmp              0      0.00%     56.75% # Class of committed instruction
system.cpu0.commit.op_class_0::SimdCvt              0      0.00%     56.75% # Class of committed instruction
system.cpu0.commit.op_class_0::SimdMisc             0      0.00%     56.75% # Class of committed instruction
system.cpu0.commit.op_class_0::SimdMult             0      0.00%     56.75% # Class of committed instruction
system.cpu0.commit.op_class_0::SimdMultAcc            0      0.00%     56.75% # Class of committed instruction
system.cpu0.commit.op_class_0::SimdShift            0      0.00%     56.75% # Class of committed instruction
system.cpu0.commit.op_class_0::SimdShiftAcc            0      0.00%     56.75% # Class of committed instruction
system.cpu0.commit.op_class_0::SimdDiv              0      0.00%     56.75% # Class of committed instruction
system.cpu0.commit.op_class_0::SimdSqrt             0      0.00%     56.75% # Class of committed instruction
system.cpu0.commit.op_class_0::SimdFloatAdd            0      0.00%     56.75% # Class of committed instruction
system.cpu0.commit.op_class_0::SimdFloatAlu            0      0.00%     56.75% # Class of committed instruction
system.cpu0.commit.op_class_0::SimdFloatCmp            0      0.00%     56.75% # Class of committed instruction
system.cpu0.commit.op_class_0::SimdFloatCvt            0      0.00%     56.75% # Class of committed instruction
system.cpu0.commit.op_class_0::SimdFloatDiv            0      0.00%     56.75% # Class of committed instruction
system.cpu0.commit.op_class_0::SimdFloatMisc            0      0.00%     56.75% # Class of committed instruction
system.cpu0.commit.op_class_0::SimdFloatMult            0      0.00%     56.75% # Class of committed instruction
system.cpu0.commit.op_class_0::SimdFloatMultAcc            0      0.00%     56.75% # Class of committed instruction
system.cpu0.commit.op_class_0::SimdFloatSqrt            0      0.00%     56.75% # Class of committed instruction
system.cpu0.commit.op_class_0::SimdReduceAdd            0      0.00%     56.75% # Class of committed instruction
system.cpu0.commit.op_class_0::SimdReduceAlu            0      0.00%     56.75% # Class of committed instruction
system.cpu0.commit.op_class_0::SimdReduceCmp            0      0.00%     56.75% # Class of committed instruction
system.cpu0.commit.op_class_0::SimdFloatReduceAdd            0      0.00%     56.75% # Class of committed instruction
system.cpu0.commit.op_class_0::SimdFloatReduceCmp            0      0.00%     56.75% # Class of committed instruction
system.cpu0.commit.op_class_0::SimdAes              0      0.00%     56.75% # Class of committed instruction
system.cpu0.commit.op_class_0::SimdAesMix            0      0.00%     56.75% # Class of committed instruction
system.cpu0.commit.op_class_0::SimdSha1Hash            0      0.00%     56.75% # Class of committed instruction
system.cpu0.commit.op_class_0::SimdSha1Hash2            0      0.00%     56.75% # Class of committed instruction
system.cpu0.commit.op_class_0::SimdSha256Hash            0      0.00%     56.75% # Class of committed instruction
system.cpu0.commit.op_class_0::SimdSha256Hash2            0      0.00%     56.75% # Class of committed instruction
system.cpu0.commit.op_class_0::SimdShaSigma2            0      0.00%     56.75% # Class of committed instruction
system.cpu0.commit.op_class_0::SimdShaSigma3            0      0.00%     56.75% # Class of committed instruction
system.cpu0.commit.op_class_0::SimdPredAlu            0      0.00%     56.75% # Class of committed instruction
system.cpu0.commit.op_class_0::MemRead      328013582     31.17%     87.92% # Class of committed instruction
system.cpu0.commit.op_class_0::MemWrite     127139483     12.08%    100.00% # Class of committed instruction
system.cpu0.commit.op_class_0::FloatMemRead           12      0.00%    100.00% # Class of committed instruction
system.cpu0.commit.op_class_0::FloatMemWrite           23      0.00%    100.00% # Class of committed instruction
system.cpu0.commit.op_class_0::IprAccess            0      0.00%    100.00% # Class of committed instruction
system.cpu0.commit.op_class_0::InstPrefetch            0      0.00%    100.00% # Class of committed instruction
system.cpu0.commit.op_class_0::total       1052437775                       # Class of committed instruction
system.cpu0.commit.refs                     455153100                       # Number of memory references committed
system.cpu0.commit.swp_count                        0                       # Number of s/w prefetches committed
system.cpu0.commit.vec_insts                        0                       # Number of committed Vector instructions.
system.cpu0.committedInsts                 1050623748                       # Number of Instructions Simulated
system.cpu0.committedOps                   1052437775                       # Number of Ops (including micro ops) Simulated
system.cpu0.cpi                              2.003110                       # CPI: Cycles Per Instruction
system.cpu0.cpi_total                        2.003110                       # CPI: Total CPI of All Threads
system.cpu0.decode.BlockedCycles            331072617                       # Number of cycles decode is blocked
system.cpu0.decode.BranchMispred              7985033                       # Number of times decode detected a branch misprediction
system.cpu0.decode.BranchResolved           142787271                       # Number of times decode resolved a branch
system.cpu0.decode.DecodedInsts            1173728404                       # Number of instructions handled by decode
system.cpu0.decode.IdleCycles               745107876                       # Number of cycles decode is idle
system.cpu0.decode.RunCycles                829681607                       # Number of cycles decode is running
system.cpu0.decode.SquashCycles              12186672                       # Number of cycles decode is squashing
system.cpu0.decode.SquashedInsts             16455056                       # Number of squashed instructions handled by decode
system.cpu0.decode.UnblockCycles              6622114                       # Number of cycles decode is unblocking
system.cpu0.dtb.accesses                            0                       # DTB accesses
system.cpu0.dtb.hits                                0                       # DTB hits
system.cpu0.dtb.misses                              0                       # DTB misses
system.cpu0.dtb.read_accesses                       0                       # DTB read accesses
system.cpu0.dtb.read_hits                           0                       # DTB read hits
system.cpu0.dtb.read_misses                         0                       # DTB read misses
system.cpu0.dtb.write_accesses                      0                       # DTB write accesses
system.cpu0.dtb.write_hits                          0                       # DTB write hits
system.cpu0.dtb.write_misses                        0                       # DTB write misses
system.cpu0.fetch.Branches                  284664357                       # Number of branches that fetch encountered
system.cpu0.fetch.CacheLines                211176530                       # Number of cache lines fetched
system.cpu0.fetch.Cycles                   1172806440                       # Number of cycles fetch has run and was not squashing or blocked
system.cpu0.fetch.IcacheSquashes              4598334                       # Number of outstanding Icache misses that were squashed
system.cpu0.fetch.IcacheWaitRetryStallCycles          232                       # Number of stall cycles due to full MSHR
system.cpu0.fetch.Insts                    1199219350                       # Number of instructions fetch has processed
system.cpu0.fetch.MiscStallCycles                  77                       # Number of cycles fetch has spent waiting on interrupts, or bad addresses, or out of MSHRs
system.cpu0.fetch.PendingTrapStallCycles          339                       # Number of stall cycles due to pending traps
system.cpu0.fetch.SquashCycles               40326842                       # Number of cycles fetch has spent squashing
system.cpu0.fetch.branchRate                 0.135264                       # Number of branch fetches per cycle
system.cpu0.fetch.icacheStallCycles         731700377                       # Number of cycles fetch is stalled on an Icache miss
system.cpu0.fetch.predictedBranches         164146638                       # Number of branches that fetch has predicted taken
system.cpu0.fetch.rate                       0.569832                       # Number of inst fetches per cycle
system.cpu0.fetch.rateDist::samples        1924670886                       # Number of instructions fetched each cycle (Total)
system.cpu0.fetch.rateDist::mean             0.624021                       # Number of instructions fetched each cycle (Total)
system.cpu0.fetch.rateDist::stdev            0.872616                       # Number of instructions fetched each cycle (Total)
system.cpu0.fetch.rateDist::underflows              0      0.00%      0.00% # Number of instructions fetched each cycle (Total)
system.cpu0.fetch.rateDist::0              1057547841     54.95%     54.95% # Number of instructions fetched each cycle (Total)
system.cpu0.fetch.rateDist::1               652327128     33.89%     88.84% # Number of instructions fetched each cycle (Total)
system.cpu0.fetch.rateDist::2               129911401      6.75%     95.59% # Number of instructions fetched each cycle (Total)
system.cpu0.fetch.rateDist::3                63923180      3.32%     98.91% # Number of instructions fetched each cycle (Total)
system.cpu0.fetch.rateDist::4                12021808      0.62%     99.54% # Number of instructions fetched each cycle (Total)
system.cpu0.fetch.rateDist::5                 6637620      0.34%     99.88% # Number of instructions fetched each cycle (Total)
system.cpu0.fetch.rateDist::6                  379038      0.02%     99.90% # Number of instructions fetched each cycle (Total)
system.cpu0.fetch.rateDist::7                 1816734      0.09%     99.99% # Number of instructions fetched each cycle (Total)
system.cpu0.fetch.rateDist::8                  106136      0.01%    100.00% # Number of instructions fetched each cycle (Total)
system.cpu0.fetch.rateDist::overflows               0      0.00%    100.00% # Number of instructions fetched each cycle (Total)
system.cpu0.fetch.rateDist::min_value               0                       # Number of instructions fetched each cycle (Total)
system.cpu0.fetch.rateDist::max_value               8                       # Number of instructions fetched each cycle (Total)
system.cpu0.fetch.rateDist::total          1924670886                       # Number of instructions fetched each cycle (Total)
system.cpu0.fp_regfile_reads                       58                       # number of floating regfile reads
system.cpu0.fp_regfile_writes                      35                       # number of floating regfile writes
system.cpu0.idleCycles                      179844384                       # Total number of cycles that the CPU has spent unscheduled due to idling
system.cpu0.iew.branchMispredicts            12273671                       # Number of branch mispredicts detected at execute
system.cpu0.iew.exec_branches               272443696                       # Number of branches executed
system.cpu0.iew.exec_nop                            0                       # number of nop insts executed
system.cpu0.iew.exec_rate                    0.538575                       # Inst execution rate
system.cpu0.iew.exec_refs                   506119201                       # number of memory reference insts executed
system.cpu0.iew.exec_stores                 139795118                       # Number of stores executed
system.cpu0.iew.exec_swp                            0                       # number of swp insts executed
system.cpu0.iew.iewBlockCycles              281828509                       # Number of cycles IEW is blocking
system.cpu0.iew.iewDispLoadInsts            367474849                       # Number of dispatched load instructions
system.cpu0.iew.iewDispNonSpecInsts           1816862                       # Number of dispatched non-speculative instructions
system.cpu0.iew.iewDispSquashedInsts          8674937                       # Number of squashed instructions skipped by dispatch
system.cpu0.iew.iewDispStoreInsts           140923776                       # Number of dispatched store instructions
system.cpu0.iew.iewDispatchedInsts         1144662814                       # Number of instructions dispatched to IQ
system.cpu0.iew.iewExecLoadInsts            366324083                       # Number of load instructions executed
system.cpu0.iew.iewExecSquashedInsts          4819711                       # Number of squashed instructions skipped in execute
system.cpu0.iew.iewExecutedInsts           1133439055                       # Number of executed instructions
system.cpu0.iew.iewIQFullEvents               1673943                       # Number of times the IQ has become full, causing a stall
system.cpu0.iew.iewIdleCycles                       0                       # Number of cycles IEW is idle
system.cpu0.iew.iewLSQFullEvents              2878706                       # Number of times the LSQ has become full, causing a stall
system.cpu0.iew.iewSquashCycles              12186672                       # Number of cycles IEW is squashing
system.cpu0.iew.iewUnblockCycles              6674797                       # Number of cycles IEW is unblocking
system.cpu0.iew.lsq.thread0.blockedLoads            0                       # Number of blocked loads due to partial load-store forwarding
system.cpu0.iew.lsq.thread0.cacheBlocked        88556                       # Number of times an access to memory failed due to the cache being blocked
system.cpu0.iew.lsq.thread0.forwLoads        20914865                       # Number of loads that had data forwarded from stores
system.cpu0.iew.lsq.thread0.ignoredResponses        41631                       # Number of memory responses ignored because the instruction is squashed
system.cpu0.iew.lsq.thread0.invAddrLoads            0                       # Number of loads ignored due to an invalid address
system.cpu0.iew.lsq.thread0.invAddrSwpfs            0                       # Number of software prefetches ignored due to an invalid address
system.cpu0.iew.lsq.thread0.memOrderViolation        14035                       # Number of memory ordering violations
system.cpu0.iew.lsq.thread0.rescheduledLoads      5836448                       # Number of loads that were rescheduled
system.cpu0.iew.lsq.thread0.squashedLoads     41272738                       # Number of loads squashed
system.cpu0.iew.lsq.thread0.squashedStores     11972787                       # Number of stores squashed
system.cpu0.iew.memOrderViolationEvents         14035                       # Number of memory order violations
system.cpu0.iew.predictedNotTakenIncorrect      1155309                       # Number of branches that were predicted not taken incorrectly
system.cpu0.iew.predictedTakenIncorrect      11118362                       # Number of branches that were predicted taken incorrectly
system.cpu0.iew.wb_consumers                479108947                       # num instructions consuming a value
system.cpu0.iew.wb_count                   1122302572                       # cumulative count of insts written-back
system.cpu0.iew.wb_fanout                    0.851585                       # average fanout of values written-back
system.cpu0.iew.wb_producers                408001866                       # num instructions producing a value
system.cpu0.iew.wb_rate                      0.533283                       # insts written-back per cycle
system.cpu0.iew.wb_sent                    1122372960                       # cumulative count of insts sent to commit
system.cpu0.int_regfile_reads              1382322790                       # number of integer regfile reads
system.cpu0.int_regfile_writes              718043764                       # number of integer regfile writes
system.cpu0.ipc                              0.499224                       # IPC: Instructions Per Cycle
system.cpu0.ipc_total                        0.499224                       # IPC: Total IPC of All Threads
system.cpu0.iq.FU_type_0::No_OpClass          3626937      0.32%      0.32% # Type of FU issued
system.cpu0.iq.FU_type_0::IntAlu            616502349     54.16%     54.48% # Type of FU issued
system.cpu0.iq.FU_type_0::IntMult             8035828      0.71%     55.19% # Type of FU issued
system.cpu0.iq.FU_type_0::IntDiv              1811605      0.16%     55.35% # Type of FU issued
system.cpu0.iq.FU_type_0::FloatAdd                  0      0.00%     55.35% # Type of FU issued
system.cpu0.iq.FU_type_0::FloatCmp                  6      0.00%     55.35% # Type of FU issued
system.cpu0.iq.FU_type_0::FloatCvt                 16      0.00%     55.35% # Type of FU issued
system.cpu0.iq.FU_type_0::FloatMult                 0      0.00%     55.35% # Type of FU issued
system.cpu0.iq.FU_type_0::FloatMultAcc              0      0.00%     55.35% # Type of FU issued
system.cpu0.iq.FU_type_0::FloatDiv                  2      0.00%     55.35% # Type of FU issued
system.cpu0.iq.FU_type_0::FloatMisc                 6      0.00%     55.35% # Type of FU issued
system.cpu0.iq.FU_type_0::FloatSqrt                 0      0.00%     55.35% # Type of FU issued
system.cpu0.iq.FU_type_0::SimdAdd                   0      0.00%     55.35% # Type of FU issued
system.cpu0.iq.FU_type_0::SimdAddAcc                0      0.00%     55.35% # Type of FU issued
system.cpu0.iq.FU_type_0::SimdAlu                   0      0.00%     55.35% # Type of FU issued
system.cpu0.iq.FU_type_0::SimdCmp                   0      0.00%     55.35% # Type of FU issued
system.cpu0.iq.FU_type_0::SimdCvt                   0      0.00%     55.35% # Type of FU issued
system.cpu0.iq.FU_type_0::SimdMisc                  0      0.00%     55.35% # Type of FU issued
system.cpu0.iq.FU_type_0::SimdMult                  0      0.00%     55.35% # Type of FU issued
system.cpu0.iq.FU_type_0::SimdMultAcc               0      0.00%     55.35% # Type of FU issued
system.cpu0.iq.FU_type_0::SimdShift                 0      0.00%     55.35% # Type of FU issued
system.cpu0.iq.FU_type_0::SimdShiftAcc              0      0.00%     55.35% # Type of FU issued
system.cpu0.iq.FU_type_0::SimdDiv                   0      0.00%     55.35% # Type of FU issued
system.cpu0.iq.FU_type_0::SimdSqrt                  0      0.00%     55.35% # Type of FU issued
system.cpu0.iq.FU_type_0::SimdFloatAdd              0      0.00%     55.35% # Type of FU issued
system.cpu0.iq.FU_type_0::SimdFloatAlu              0      0.00%     55.35% # Type of FU issued
system.cpu0.iq.FU_type_0::SimdFloatCmp              0      0.00%     55.35% # Type of FU issued
system.cpu0.iq.FU_type_0::SimdFloatCvt              0      0.00%     55.35% # Type of FU issued
system.cpu0.iq.FU_type_0::SimdFloatDiv              0      0.00%     55.35% # Type of FU issued
system.cpu0.iq.FU_type_0::SimdFloatMisc             0      0.00%     55.35% # Type of FU issued
system.cpu0.iq.FU_type_0::SimdFloatMult             0      0.00%     55.35% # Type of FU issued
system.cpu0.iq.FU_type_0::SimdFloatMultAcc            0      0.00%     55.35% # Type of FU issued
system.cpu0.iq.FU_type_0::SimdFloatSqrt             0      0.00%     55.35% # Type of FU issued
system.cpu0.iq.FU_type_0::SimdReduceAdd             0      0.00%     55.35% # Type of FU issued
system.cpu0.iq.FU_type_0::SimdReduceAlu             0      0.00%     55.35% # Type of FU issued
system.cpu0.iq.FU_type_0::SimdReduceCmp             0      0.00%     55.35% # Type of FU issued
system.cpu0.iq.FU_type_0::SimdFloatReduceAdd            0      0.00%     55.35% # Type of FU issued
system.cpu0.iq.FU_type_0::SimdFloatReduceCmp            0      0.00%     55.35% # Type of FU issued
system.cpu0.iq.FU_type_0::SimdAes                   0      0.00%     55.35% # Type of FU issued
system.cpu0.iq.FU_type_0::SimdAesMix                0      0.00%     55.35% # Type of FU issued
system.cpu0.iq.FU_type_0::SimdSha1Hash              0      0.00%     55.35% # Type of FU issued
system.cpu0.iq.FU_type_0::SimdSha1Hash2             0      0.00%     55.35% # Type of FU issued
system.cpu0.iq.FU_type_0::SimdSha256Hash            0      0.00%     55.35% # Type of FU issued
system.cpu0.iq.FU_type_0::SimdSha256Hash2            0      0.00%     55.35% # Type of FU issued
system.cpu0.iq.FU_type_0::SimdShaSigma2             0      0.00%     55.35% # Type of FU issued
system.cpu0.iq.FU_type_0::SimdShaSigma3             0      0.00%     55.35% # Type of FU issued
system.cpu0.iq.FU_type_0::SimdPredAlu               0      0.00%     55.35% # Type of FU issued
system.cpu0.iq.FU_type_0::MemRead           369938895     32.50%     87.85% # Type of FU issued
system.cpu0.iq.FU_type_0::MemWrite          138343080     12.15%    100.00% # Type of FU issued
system.cpu0.iq.FU_type_0::FloatMemRead             18      0.00%    100.00% # Type of FU issued
system.cpu0.iq.FU_type_0::FloatMemWrite            25      0.00%    100.00% # Type of FU issued
system.cpu0.iq.FU_type_0::IprAccess                 0      0.00%    100.00% # Type of FU issued
system.cpu0.iq.FU_type_0::InstPrefetch              0      0.00%    100.00% # Type of FU issued
system.cpu0.iq.FU_type_0::total            1138258767                       # Type of FU issued
system.cpu0.iq.fp_alu_accesses                     76                       # Number of floating point alu accesses
system.cpu0.iq.fp_inst_queue_reads                149                       # Number of floating instruction queue reads
system.cpu0.iq.fp_inst_queue_wakeup_accesses           71                       # Number of floating instruction queue wakeup accesses
system.cpu0.iq.fp_inst_queue_writes                81                       # Number of floating instruction queue writes
system.cpu0.iq.fu_busy_cnt                    2138922                       # FU busy when requested
system.cpu0.iq.fu_busy_rate                  0.001879                       # FU busy rate (busy events/executed inst)
system.cpu0.iq.fu_full::No_OpClass                  0      0.00%      0.00% # attempts to use FU when none available
system.cpu0.iq.fu_full::IntAlu                 386871     18.09%     18.09% # attempts to use FU when none available
system.cpu0.iq.fu_full::IntMult                     0      0.00%     18.09% # attempts to use FU when none available
system.cpu0.iq.fu_full::IntDiv                      0      0.00%     18.09% # attempts to use FU when none available
system.cpu0.iq.fu_full::FloatAdd                    0      0.00%     18.09% # attempts to use FU when none available
system.cpu0.iq.fu_full::FloatCmp                    0      0.00%     18.09% # attempts to use FU when none available
system.cpu0.iq.fu_full::FloatCvt                    0      0.00%     18.09% # attempts to use FU when none available
system.cpu0.iq.fu_full::FloatMult                   0      0.00%     18.09% # attempts to use FU when none available
system.cpu0.iq.fu_full::FloatMultAcc                0      0.00%     18.09% # attempts to use FU when none available
system.cpu0.iq.fu_full::FloatDiv                    0      0.00%     18.09% # attempts to use FU when none available
system.cpu0.iq.fu_full::FloatMisc                   0      0.00%     18.09% # attempts to use FU when none available
system.cpu0.iq.fu_full::FloatSqrt                   0      0.00%     18.09% # attempts to use FU when none available
system.cpu0.iq.fu_full::SimdAdd                     0      0.00%     18.09% # attempts to use FU when none available
system.cpu0.iq.fu_full::SimdAddAcc                  0      0.00%     18.09% # attempts to use FU when none available
system.cpu0.iq.fu_full::SimdAlu                     0      0.00%     18.09% # attempts to use FU when none available
system.cpu0.iq.fu_full::SimdCmp                     0      0.00%     18.09% # attempts to use FU when none available
system.cpu0.iq.fu_full::SimdCvt                     0      0.00%     18.09% # attempts to use FU when none available
system.cpu0.iq.fu_full::SimdMisc                    0      0.00%     18.09% # attempts to use FU when none available
system.cpu0.iq.fu_full::SimdMult                    0      0.00%     18.09% # attempts to use FU when none available
system.cpu0.iq.fu_full::SimdMultAcc                 0      0.00%     18.09% # attempts to use FU when none available
system.cpu0.iq.fu_full::SimdShift                   0      0.00%     18.09% # attempts to use FU when none available
system.cpu0.iq.fu_full::SimdShiftAcc                0      0.00%     18.09% # attempts to use FU when none available
system.cpu0.iq.fu_full::SimdDiv                     0      0.00%     18.09% # attempts to use FU when none available
system.cpu0.iq.fu_full::SimdSqrt                    0      0.00%     18.09% # attempts to use FU when none available
system.cpu0.iq.fu_full::SimdFloatAdd                0      0.00%     18.09% # attempts to use FU when none available
system.cpu0.iq.fu_full::SimdFloatAlu                0      0.00%     18.09% # attempts to use FU when none available
system.cpu0.iq.fu_full::SimdFloatCmp                0      0.00%     18.09% # attempts to use FU when none available
system.cpu0.iq.fu_full::SimdFloatCvt                0      0.00%     18.09% # attempts to use FU when none available
system.cpu0.iq.fu_full::SimdFloatDiv                0      0.00%     18.09% # attempts to use FU when none available
system.cpu0.iq.fu_full::SimdFloatMisc               0      0.00%     18.09% # attempts to use FU when none available
system.cpu0.iq.fu_full::SimdFloatMult               0      0.00%     18.09% # attempts to use FU when none available
system.cpu0.iq.fu_full::SimdFloatMultAcc            0      0.00%     18.09% # attempts to use FU when none available
system.cpu0.iq.fu_full::SimdFloatSqrt               0      0.00%     18.09% # attempts to use FU when none available
system.cpu0.iq.fu_full::SimdReduceAdd               0      0.00%     18.09% # attempts to use FU when none available
system.cpu0.iq.fu_full::SimdReduceAlu               0      0.00%     18.09% # attempts to use FU when none available
system.cpu0.iq.fu_full::SimdReduceCmp               0      0.00%     18.09% # attempts to use FU when none available
system.cpu0.iq.fu_full::SimdFloatReduceAdd            0      0.00%     18.09% # attempts to use FU when none available
system.cpu0.iq.fu_full::SimdFloatReduceCmp            0      0.00%     18.09% # attempts to use FU when none available
system.cpu0.iq.fu_full::SimdAes                     0      0.00%     18.09% # attempts to use FU when none available
system.cpu0.iq.fu_full::SimdAesMix                  0      0.00%     18.09% # attempts to use FU when none available
system.cpu0.iq.fu_full::SimdSha1Hash                0      0.00%     18.09% # attempts to use FU when none available
system.cpu0.iq.fu_full::SimdSha1Hash2               0      0.00%     18.09% # attempts to use FU when none available
system.cpu0.iq.fu_full::SimdSha256Hash              0      0.00%     18.09% # attempts to use FU when none available
system.cpu0.iq.fu_full::SimdSha256Hash2             0      0.00%     18.09% # attempts to use FU when none available
system.cpu0.iq.fu_full::SimdShaSigma2               0      0.00%     18.09% # attempts to use FU when none available
system.cpu0.iq.fu_full::SimdShaSigma3               0      0.00%     18.09% # attempts to use FU when none available
system.cpu0.iq.fu_full::SimdPredAlu                 0      0.00%     18.09% # attempts to use FU when none available
system.cpu0.iq.fu_full::MemRead               1545789     72.27%     90.36% # attempts to use FU when none available
system.cpu0.iq.fu_full::MemWrite               206259      9.64%    100.00% # attempts to use FU when none available
system.cpu0.iq.fu_full::FloatMemRead                0      0.00%    100.00% # attempts to use FU when none available
system.cpu0.iq.fu_full::FloatMemWrite               3      0.00%    100.00% # attempts to use FU when none available
system.cpu0.iq.fu_full::IprAccess                   0      0.00%    100.00% # attempts to use FU when none available
system.cpu0.iq.fu_full::InstPrefetch                0      0.00%    100.00% # attempts to use FU when none available
system.cpu0.iq.int_alu_accesses            1136770676                       # Number of integer alu accesses
system.cpu0.iq.int_inst_queue_reads        4203444229                       # Number of integer instruction queue reads
system.cpu0.iq.int_inst_queue_wakeup_accesses   1122302501                       # Number of integer instruction queue wakeup accesses
system.cpu0.iq.int_inst_queue_writes       1236900736                       # Number of integer instruction queue writes
system.cpu0.iq.iqInstsAdded                1139220310                       # Number of instructions added to the IQ (excludes non-spec)
system.cpu0.iq.iqInstsIssued               1138258767                       # Number of instructions issued
system.cpu0.iq.iqNonSpecInstsAdded            5442504                       # Number of non-speculative instructions added to the IQ
system.cpu0.iq.iqSquashedInstsExamined       92225035                       # Number of squashed instructions iterated over during squash; mainly for profiling
system.cpu0.iq.iqSquashedInstsIssued           117037                       # Number of squashed instructions issued
system.cpu0.iq.iqSquashedNonSpecRemoved          1019                       # Number of squashed non-spec instructions that were removed
system.cpu0.iq.iqSquashedOperandsExamined     23954041                       # Number of squashed operands that are examined and possibly removed from graph
system.cpu0.iq.issued_per_cycle::samples   1924670886                       # Number of insts issued each cycle
system.cpu0.iq.issued_per_cycle::mean        0.591404                       # Number of insts issued each cycle
system.cpu0.iq.issued_per_cycle::stdev       0.801625                       # Number of insts issued each cycle
system.cpu0.iq.issued_per_cycle::underflows            0      0.00%      0.00% # Number of insts issued each cycle
system.cpu0.iq.issued_per_cycle::0         1087939551     56.53%     56.53% # Number of insts issued each cycle
system.cpu0.iq.issued_per_cycle::1          596388415     30.99%     87.51% # Number of insts issued each cycle
system.cpu0.iq.issued_per_cycle::2          194637483     10.11%     97.63% # Number of insts issued each cycle
system.cpu0.iq.issued_per_cycle::3           35666077      1.85%     99.48% # Number of insts issued each cycle
system.cpu0.iq.issued_per_cycle::4            6198860      0.32%     99.80% # Number of insts issued each cycle
system.cpu0.iq.issued_per_cycle::5            2748161      0.14%     99.94% # Number of insts issued each cycle
system.cpu0.iq.issued_per_cycle::6             704883      0.04%     99.98% # Number of insts issued each cycle
system.cpu0.iq.issued_per_cycle::7             268036      0.01%     99.99% # Number of insts issued each cycle
system.cpu0.iq.issued_per_cycle::8             119420      0.01%    100.00% # Number of insts issued each cycle
system.cpu0.iq.issued_per_cycle::overflows            0      0.00%    100.00% # Number of insts issued each cycle
system.cpu0.iq.issued_per_cycle::min_value            0                       # Number of insts issued each cycle
system.cpu0.iq.issued_per_cycle::max_value            8                       # Number of insts issued each cycle
system.cpu0.iq.issued_per_cycle::total     1924670886                       # Number of insts issued each cycle
system.cpu0.iq.rate                          0.540865                       # Inst issue rate
system.cpu0.iq.vec_alu_accesses                     0                       # Number of vector alu accesses
system.cpu0.iq.vec_inst_queue_reads                 0                       # Number of vector instruction queue reads
system.cpu0.iq.vec_inst_queue_wakeup_accesses            0                       # Number of vector instruction queue wakeup accesses
system.cpu0.iq.vec_inst_queue_writes                0                       # Number of vector instruction queue writes
system.cpu0.itb.accesses                            0                       # DTB accesses
system.cpu0.itb.hits                                0                       # DTB hits
system.cpu0.itb.misses                              0                       # DTB misses
system.cpu0.itb.read_accesses                       0                       # DTB read accesses
system.cpu0.itb.read_hits                           0                       # DTB read hits
system.cpu0.itb.read_misses                         0                       # DTB read misses
system.cpu0.itb.write_accesses                      0                       # DTB write accesses
system.cpu0.itb.write_hits                          0                       # DTB write hits
system.cpu0.itb.write_misses                        0                       # DTB write misses
system.cpu0.memDep0.conflictingLoads         16549483                       # Number of conflicting loads.
system.cpu0.memDep0.conflictingStores         2824315                       # Number of conflicting stores.
system.cpu0.memDep0.insertedLoads           367474849                       # Number of loads inserted to the mem dependence unit.
system.cpu0.memDep0.insertedStores          140923776                       # Number of stores inserted to the mem dependence unit.
system.cpu0.misc_regfile_reads                   1532                       # number of misc regfile reads
system.cpu0.misc_regfile_writes                    30                       # number of misc regfile writes
system.cpu0.numCycles                      2104515270                       # number of cpu cycles simulated
system.cpu0.numWorkItemsCompleted                   0                       # number of work items this cpu completed
system.cpu0.numWorkItemsStarted                     0                       # number of work items this cpu started
system.cpu0.quiesceCycles                     3853366                       # Total number of cycles that CPU has spent quiesced or waiting for an interrupt
system.cpu0.rename.BlockCycles              301752903                       # Number of cycles rename is blocking
system.cpu0.rename.CommittedMaps            670534429                       # Number of HB maps that are committed
system.cpu0.rename.IQFullEvents              11969524                       # Number of times rename has blocked due to IQ full
system.cpu0.rename.IdleCycles               761945608                       # Number of cycles rename is idle
system.cpu0.rename.LQFullEvents               6939107                       # Number of times rename has blocked due to LQ full
system.cpu0.rename.ROBFullEvents                33051                       # Number of times rename has blocked due to ROB full
system.cpu0.rename.RenameLookups           1419697690                       # Number of register rename lookups that rename has made
system.cpu0.rename.RenamedInsts            1163791711                       # Number of instructions processed by rename
system.cpu0.rename.RenamedOperands          750156892                       # Number of destination operands rename has renamed
system.cpu0.rename.RunCycles                818418548                       # Number of cycles rename is running
system.cpu0.rename.SQFullEvents              10455886                       # Number of times rename has blocked due to SQ full
system.cpu0.rename.SquashCycles              12186672                       # Number of cycles rename is squashing
system.cpu0.rename.UnblockCycles             30028663                       # Number of cycles rename is unblocking
system.cpu0.rename.UndoneMaps                79622458                       # Number of HB maps that are undone due to squashing
system.cpu0.rename.fp_rename_lookups               58                       # Number of floating rename lookups
system.cpu0.rename.int_rename_lookups      1419697632                       # Number of integer rename lookups
system.cpu0.rename.serializeStallCycles        338492                       # count of cycles rename stalled for serializing inst
system.cpu0.rename.serializingInsts              4791                       # count of serializing insts renamed
system.cpu0.rename.skidInsts                 24908651                       # count of insts added to the skid buffer
system.cpu0.rename.tempSerializingInsts          4790                       # count of temporary serializing insts renamed
system.cpu0.rob.rob_reads                  3016677665                       # The number of ROB reads
system.cpu0.rob.rob_writes                 2309745317                       # The number of ROB writes
system.cpu0.timesIdled                       21539737                       # Number of times that the entire CPU went into an idle state and unscheduled itself
system.cpu0.workload.numSyscalls                 1488                       # Number of system calls
system.cpu1.branchPred.BTBCorrect                   0                       # Number of correct BTB predictions (this stat may not work properly.
system.cpu1.branchPred.BTBHitPct            95.187303                       # BTB Hit Percentage
system.cpu1.branchPred.BTBHits                9546386                       # Number of BTB hits
system.cpu1.branchPred.BTBLookups            10029054                       # Number of BTB lookups
system.cpu1.branchPred.RASInCorrect                 0                       # Number of incorrect RAS predictions.
system.cpu1.branchPred.condIncorrect          1903505                       # Number of conditional branches incorrect
system.cpu1.branchPred.condPredicted         18630349                       # Number of conditional branches predicted
system.cpu1.branchPred.indirectHits            323340                       # Number of indirect target hits.
system.cpu1.branchPred.indirectLookups         455101                       # Number of indirect predictor lookups.
system.cpu1.branchPred.indirectMisses          131761                       # Number of indirect misses.
system.cpu1.branchPred.lookups               20300896                       # Number of BP lookups
system.cpu1.branchPred.usedRAS                      0                       # Number of times the RAS was used to get a target.
system.cpu1.branchPredindirectMispredicted         4872                       # Number of mispredicted indirect branches.
system.cpu1.commit.amos                       1811199                       # Number of atomic instructions committed
system.cpu1.commit.branchMispredicts          1115510                       # The number of times a branch was mispredicted
system.cpu1.commit.branches                  12198610                       # Number of branches committed
system.cpu1.commit.bw_lim_events              1326929                       # number cycles where commit BW limit reached
system.cpu1.commit.commitNonSpecStalls        5434284                       # The number of times commit has been forced to stall to communicate backwards
system.cpu1.commit.commitSquashedInsts       22033019                       # The number of squashed insts skipped by commit
system.cpu1.commit.committedInsts            55057597                       # Number of instructions committed
system.cpu1.commit.committedOps              56868973                       # Number of ops (including micro ops) committed
system.cpu1.commit.committed_per_cycle::samples    327314140                       # Number of insts commited each cycle
system.cpu1.commit.committed_per_cycle::mean     0.173744                       # Number of insts commited each cycle
system.cpu1.commit.committed_per_cycle::stdev     0.829402                       # Number of insts commited each cycle
system.cpu1.commit.committed_per_cycle::underflows            0      0.00%      0.00% # Number of insts commited each cycle
system.cpu1.commit.committed_per_cycle::0    304254382     92.95%     92.95% # Number of insts commited each cycle
system.cpu1.commit.committed_per_cycle::1     11279631      3.45%     96.40% # Number of insts commited each cycle
system.cpu1.commit.committed_per_cycle::2      3642318      1.11%     97.51% # Number of insts commited each cycle
system.cpu1.commit.committed_per_cycle::3      3632180      1.11%     98.62% # Number of insts commited each cycle
system.cpu1.commit.committed_per_cycle::4      1003969      0.31%     98.93% # Number of insts commited each cycle
system.cpu1.commit.committed_per_cycle::5       378270      0.12%     99.05% # Number of insts commited each cycle
system.cpu1.commit.committed_per_cycle::6      1689719      0.52%     99.56% # Number of insts commited each cycle
system.cpu1.commit.committed_per_cycle::7       106742      0.03%     99.59% # Number of insts commited each cycle
system.cpu1.commit.committed_per_cycle::8      1326929      0.41%    100.00% # Number of insts commited each cycle
system.cpu1.commit.committed_per_cycle::overflows            0      0.00%    100.00% # Number of insts commited each cycle
system.cpu1.commit.committed_per_cycle::min_value            0                       # Number of insts commited each cycle
system.cpu1.commit.committed_per_cycle::max_value            8                       # Number of insts commited each cycle
system.cpu1.commit.committed_per_cycle::total    327314140                       # Number of insts commited each cycle
system.cpu1.commit.fp_insts                        12                       # Number of committed floating point instructions.
system.cpu1.commit.function_calls              501856                       # Number of function calls committed.
system.cpu1.commit.int_insts                 52955204                       # Number of committed integer instructions.
system.cpu1.commit.loads                     16122838                       # Number of loads committed
system.cpu1.commit.membars                    3622523                       # Number of memory barriers committed
system.cpu1.commit.op_class_0::No_OpClass      3622523      6.37%      6.37% # Class of committed instruction
system.cpu1.commit.op_class_0::IntAlu        31998408     56.27%     62.64% # Class of committed instruction
system.cpu1.commit.op_class_0::IntMult             43      0.00%     62.64% # Class of committed instruction
system.cpu1.commit.op_class_0::IntDiv              86      0.00%     62.64% # Class of committed instruction
system.cpu1.commit.op_class_0::FloatAdd             0      0.00%     62.64% # Class of committed instruction
system.cpu1.commit.op_class_0::FloatCmp             0      0.00%     62.64% # Class of committed instruction
system.cpu1.commit.op_class_0::FloatCvt             0      0.00%     62.64% # Class of committed instruction
system.cpu1.commit.op_class_0::FloatMult            0      0.00%     62.64% # Class of committed instruction
system.cpu1.commit.op_class_0::FloatMultAcc            0      0.00%     62.64% # Class of committed instruction
system.cpu1.commit.op_class_0::FloatDiv             0      0.00%     62.64% # Class of committed instruction
system.cpu1.commit.op_class_0::FloatMisc            0      0.00%     62.64% # Class of committed instruction
system.cpu1.commit.op_class_0::FloatSqrt            0      0.00%     62.64% # Class of committed instruction
system.cpu1.commit.op_class_0::SimdAdd              0      0.00%     62.64% # Class of committed instruction
system.cpu1.commit.op_class_0::SimdAddAcc            0      0.00%     62.64% # Class of committed instruction
system.cpu1.commit.op_class_0::SimdAlu              0      0.00%     62.64% # Class of committed instruction
system.cpu1.commit.op_class_0::SimdCmp              0      0.00%     62.64% # Class of committed instruction
system.cpu1.commit.op_class_0::SimdCvt              0      0.00%     62.64% # Class of committed instruction
system.cpu1.commit.op_class_0::SimdMisc             0      0.00%     62.64% # Class of committed instruction
system.cpu1.commit.op_class_0::SimdMult             0      0.00%     62.64% # Class of committed instruction
system.cpu1.commit.op_class_0::SimdMultAcc            0      0.00%     62.64% # Class of committed instruction
system.cpu1.commit.op_class_0::SimdShift            0      0.00%     62.64% # Class of committed instruction
system.cpu1.commit.op_class_0::SimdShiftAcc            0      0.00%     62.64% # Class of committed instruction
system.cpu1.commit.op_class_0::SimdDiv              0      0.00%     62.64% # Class of committed instruction
system.cpu1.commit.op_class_0::SimdSqrt             0      0.00%     62.64% # Class of committed instruction
system.cpu1.commit.op_class_0::SimdFloatAdd            0      0.00%     62.64% # Class of committed instruction
system.cpu1.commit.op_class_0::SimdFloatAlu            0      0.00%     62.64% # Class of committed instruction
system.cpu1.commit.op_class_0::SimdFloatCmp            0      0.00%     62.64% # Class of committed instruction
system.cpu1.commit.op_class_0::SimdFloatCvt            0      0.00%     62.64% # Class of committed instruction
system.cpu1.commit.op_class_0::SimdFloatDiv            0      0.00%     62.64% # Class of committed instruction
system.cpu1.commit.op_class_0::SimdFloatMisc            0      0.00%     62.64% # Class of committed instruction
system.cpu1.commit.op_class_0::SimdFloatMult            0      0.00%     62.64% # Class of committed instruction
system.cpu1.commit.op_class_0::SimdFloatMultAcc            0      0.00%     62.64% # Class of committed instruction
system.cpu1.commit.op_class_0::SimdFloatSqrt            0      0.00%     62.64% # Class of committed instruction
system.cpu1.commit.op_class_0::SimdReduceAdd            0      0.00%     62.64% # Class of committed instruction
system.cpu1.commit.op_class_0::SimdReduceAlu            0      0.00%     62.64% # Class of committed instruction
system.cpu1.commit.op_class_0::SimdReduceCmp            0      0.00%     62.64% # Class of committed instruction
system.cpu1.commit.op_class_0::SimdFloatReduceAdd            0      0.00%     62.64% # Class of committed instruction
system.cpu1.commit.op_class_0::SimdFloatReduceCmp            0      0.00%     62.64% # Class of committed instruction
system.cpu1.commit.op_class_0::SimdAes              0      0.00%     62.64% # Class of committed instruction
system.cpu1.commit.op_class_0::SimdAesMix            0      0.00%     62.64% # Class of committed instruction
system.cpu1.commit.op_class_0::SimdSha1Hash            0      0.00%     62.64% # Class of committed instruction
system.cpu1.commit.op_class_0::SimdSha1Hash2            0      0.00%     62.64% # Class of committed instruction
system.cpu1.commit.op_class_0::SimdSha256Hash            0      0.00%     62.64% # Class of committed instruction
system.cpu1.commit.op_class_0::SimdSha256Hash2            0      0.00%     62.64% # Class of committed instruction
system.cpu1.commit.op_class_0::SimdShaSigma2            0      0.00%     62.64% # Class of committed instruction
system.cpu1.commit.op_class_0::SimdShaSigma3            0      0.00%     62.64% # Class of committed instruction
system.cpu1.commit.op_class_0::SimdPredAlu            0      0.00%     62.64% # Class of committed instruction
system.cpu1.commit.op_class_0::MemRead       17934037     31.54%     94.17% # Class of committed instruction
system.cpu1.commit.op_class_0::MemWrite       3313864      5.83%    100.00% # Class of committed instruction
system.cpu1.commit.op_class_0::FloatMemRead            0      0.00%    100.00% # Class of committed instruction
system.cpu1.commit.op_class_0::FloatMemWrite           12      0.00%    100.00% # Class of committed instruction
system.cpu1.commit.op_class_0::IprAccess            0      0.00%    100.00% # Class of committed instruction
system.cpu1.commit.op_class_0::InstPrefetch            0      0.00%    100.00% # Class of committed instruction
system.cpu1.commit.op_class_0::total         56868973                       # Class of committed instruction
system.cpu1.commit.refs                      21247913                       # Number of memory references committed
system.cpu1.commit.swp_count                        0                       # Number of s/w prefetches committed
system.cpu1.commit.vec_insts                        0                       # Number of committed Vector instructions.
system.cpu1.committedInsts                   55057597                       # Number of Instructions Simulated
system.cpu1.committedOps                     56868973                       # Number of Ops (including micro ops) Simulated
system.cpu1.cpi                              6.016221                       # CPI: Cycles Per Instruction
system.cpu1.cpi_total                        6.016221                       # CPI: Total CPI of All Threads
system.cpu1.decode.BlockedCycles            286641711                       # Number of cycles decode is blocked
system.cpu1.decode.BranchMispred               794010                       # Number of times decode detected a branch misprediction
system.cpu1.decode.BranchResolved             8609422                       # Number of times decode resolved a branch
system.cpu1.decode.DecodedInsts              86383282                       # Number of instructions handled by decode
system.cpu1.decode.IdleCycles                10559010                       # Number of cycles decode is idle
system.cpu1.decode.RunCycles                 27749450                       # Number of cycles decode is running
system.cpu1.decode.SquashCycles               1116122                       # Number of cycles decode is squashing
system.cpu1.decode.SquashedInsts              1135857                       # Number of squashed instructions handled by decode
system.cpu1.decode.UnblockCycles              4778976                       # Number of cycles decode is unblocking
system.cpu1.dtb.accesses                            0                       # DTB accesses
system.cpu1.dtb.hits                                0                       # DTB hits
system.cpu1.dtb.misses                              0                       # DTB misses
system.cpu1.dtb.read_accesses                       0                       # DTB read accesses
system.cpu1.dtb.read_hits                           0                       # DTB read hits
system.cpu1.dtb.read_misses                         0                       # DTB read misses
system.cpu1.dtb.write_accesses                      0                       # DTB write accesses
system.cpu1.dtb.write_hits                          0                       # DTB write hits
system.cpu1.dtb.write_misses                        0                       # DTB write misses
system.cpu1.fetch.Branches                   20300896                       # Number of branches that fetch encountered
system.cpu1.fetch.CacheLines                  9228647                       # Number of cache lines fetched
system.cpu1.fetch.Cycles                    318440369                       # Number of cycles fetch has run and was not squashing or blocked
system.cpu1.fetch.IcacheSquashes                87264                       # Number of outstanding Icache misses that were squashed
system.cpu1.fetch.IcacheWaitRetryStallCycles           11                       # Number of stall cycles due to full MSHR
system.cpu1.fetch.Insts                      99991211                       # Number of instructions fetch has processed
system.cpu1.fetch.MiscStallCycles                  26                       # Number of cycles fetch has spent waiting on interrupts, or bad addresses, or out of MSHRs
system.cpu1.fetch.PendingTrapStallCycles          146                       # Number of stall cycles due to pending traps
system.cpu1.fetch.SquashCycles                3808280                       # Number of cycles fetch has spent squashing
system.cpu1.fetch.branchRate                 0.061288                       # Number of branch fetches per cycle
system.cpu1.fetch.icacheStallCycles          10500577                       # Number of cycles fetch is stalled on an Icache miss
system.cpu1.fetch.predictedBranches           9869726                       # Number of branches that fetch has predicted taken
system.cpu1.fetch.rate                       0.301871                       # Number of inst fetches per cycle
system.cpu1.fetch.rateDist::samples         330845269                       # Number of instructions fetched each cycle (Total)
system.cpu1.fetch.rateDist::mean             0.314267                       # Number of instructions fetched each cycle (Total)
system.cpu1.fetch.rateDist::stdev            0.824344                       # Number of instructions fetched each cycle (Total)
system.cpu1.fetch.rateDist::underflows              0      0.00%      0.00% # Number of instructions fetched each cycle (Total)
system.cpu1.fetch.rateDist::0               273013214     82.52%     82.52% # Number of instructions fetched each cycle (Total)
system.cpu1.fetch.rateDist::1                30354099      9.17%     91.69% # Number of instructions fetched each cycle (Total)
system.cpu1.fetch.rateDist::2                16514799      4.99%     96.69% # Number of instructions fetched each cycle (Total)
system.cpu1.fetch.rateDist::3                 6611880      2.00%     98.68% # Number of instructions fetched each cycle (Total)
system.cpu1.fetch.rateDist::4                 1900082      0.57%     99.26% # Number of instructions fetched each cycle (Total)
system.cpu1.fetch.rateDist::5                 1559356      0.47%     99.73% # Number of instructions fetched each cycle (Total)
system.cpu1.fetch.rateDist::6                  888657      0.27%    100.00% # Number of instructions fetched each cycle (Total)
system.cpu1.fetch.rateDist::7                     105      0.00%    100.00% # Number of instructions fetched each cycle (Total)
system.cpu1.fetch.rateDist::8                    3077      0.00%    100.00% # Number of instructions fetched each cycle (Total)
system.cpu1.fetch.rateDist::overflows               0      0.00%    100.00% # Number of instructions fetched each cycle (Total)
system.cpu1.fetch.rateDist::min_value               0                       # Number of instructions fetched each cycle (Total)
system.cpu1.fetch.rateDist::max_value               8                       # Number of instructions fetched each cycle (Total)
system.cpu1.fetch.rateDist::total           330845269                       # Number of instructions fetched each cycle (Total)
system.cpu1.fp_regfile_reads                       12                       # number of floating regfile reads
system.cpu1.idleCycles                         393390                       # Total number of cycles that the CPU has spent unscheduled due to idling
system.cpu1.iew.branchMispredicts             1177641                       # Number of branch mispredicts detected at execute
system.cpu1.iew.exec_branches                14756792                       # Number of branches executed
system.cpu1.iew.exec_nop                            0                       # number of nop insts executed
system.cpu1.iew.exec_rate                    0.194549                       # Inst execution rate
system.cpu1.iew.exec_refs                    22504323                       # number of memory reference insts executed
system.cpu1.iew.exec_stores                   5226554                       # Number of stores executed
system.cpu1.iew.exec_swp                            0                       # number of swp insts executed
system.cpu1.iew.iewBlockCycles              249434302                       # Number of cycles IEW is blocking
system.cpu1.iew.iewDispLoadInsts             22421101                       # Number of dispatched load instructions
system.cpu1.iew.iewDispNonSpecInsts           2719802                       # Number of dispatched non-speculative instructions
system.cpu1.iew.iewDispSquashedInsts          2121842                       # Number of squashed instructions skipped by dispatch
system.cpu1.iew.iewDispStoreInsts             7128698                       # Number of dispatched store instructions
system.cpu1.iew.iewDispatchedInsts           78894626                       # Number of instructions dispatched to IQ
system.cpu1.iew.iewExecLoadInsts             17277769                       # Number of load instructions executed
system.cpu1.iew.iewExecSquashedInsts           786239                       # Number of squashed instructions skipped in execute
system.cpu1.iew.iewExecutedInsts             64442187                       # Number of executed instructions
system.cpu1.iew.iewIQFullEvents               1927540                       # Number of times the IQ has become full, causing a stall
system.cpu1.iew.iewIdleCycles                       0                       # Number of cycles IEW is idle
system.cpu1.iew.iewLSQFullEvents              1594040                       # Number of times the LSQ has become full, causing a stall
system.cpu1.iew.iewSquashCycles               1116122                       # Number of cycles IEW is squashing
system.cpu1.iew.iewUnblockCycles              5280872                       # Number of cycles IEW is unblocking
system.cpu1.iew.lsq.thread0.blockedLoads            0                       # Number of blocked loads due to partial load-store forwarding
system.cpu1.iew.lsq.thread0.cacheBlocked        16197                       # Number of times an access to memory failed due to the cache being blocked
system.cpu1.iew.lsq.thread0.forwLoads          340156                       # Number of loads that had data forwarded from stores
system.cpu1.iew.lsq.thread0.ignoredResponses         9373                       # Number of memory responses ignored because the instruction is squashed
system.cpu1.iew.lsq.thread0.invAddrLoads            0                       # Number of loads ignored due to an invalid address
system.cpu1.iew.lsq.thread0.invAddrSwpfs            0                       # Number of software prefetches ignored due to an invalid address
system.cpu1.iew.lsq.thread0.memOrderViolation          670                       # Number of memory ordering violations
system.cpu1.iew.lsq.thread0.rescheduledLoads         2394                       # Number of loads that were rescheduled
system.cpu1.iew.lsq.thread0.squashedLoads      6298263                       # Number of loads squashed
system.cpu1.iew.lsq.thread0.squashedStores      2003623                       # Number of stores squashed
system.cpu1.iew.memOrderViolationEvents           670                       # Number of memory order violations
system.cpu1.iew.predictedNotTakenIncorrect       201400                       # Number of branches that were predicted not taken incorrectly
system.cpu1.iew.predictedTakenIncorrect        976241                       # Number of branches that were predicted taken incorrectly
system.cpu1.iew.wb_consumers                 37582298                       # num instructions consuming a value
system.cpu1.iew.wb_count                     64049120                       # cumulative count of insts written-back
system.cpu1.iew.wb_fanout                    0.849780                       # average fanout of values written-back
system.cpu1.iew.wb_producers                 31936674                       # num instructions producing a value
system.cpu1.iew.wb_rate                      0.193362                       # insts written-back per cycle
system.cpu1.iew.wb_sent                      64068794                       # cumulative count of insts sent to commit
system.cpu1.int_regfile_reads                80507174                       # number of integer regfile reads
system.cpu1.int_regfile_writes               42554907                       # number of integer regfile writes
system.cpu1.ipc                              0.166217                       # IPC: Instructions Per Cycle
system.cpu1.ipc_total                        0.166217                       # IPC: Total IPC of All Threads
system.cpu1.iq.FU_type_0::No_OpClass          3622665      5.55%      5.55% # Type of FU issued
system.cpu1.iq.FU_type_0::IntAlu             38957594     59.72%     65.28% # Type of FU issued
system.cpu1.iq.FU_type_0::IntMult                  45      0.00%     65.28% # Type of FU issued
system.cpu1.iq.FU_type_0::IntDiv                   88      0.00%     65.28% # Type of FU issued
system.cpu1.iq.FU_type_0::FloatAdd                  0      0.00%     65.28% # Type of FU issued
system.cpu1.iq.FU_type_0::FloatCmp                  0      0.00%     65.28% # Type of FU issued
system.cpu1.iq.FU_type_0::FloatCvt                  0      0.00%     65.28% # Type of FU issued
system.cpu1.iq.FU_type_0::FloatMult                 0      0.00%     65.28% # Type of FU issued
system.cpu1.iq.FU_type_0::FloatMultAcc              0      0.00%     65.28% # Type of FU issued
system.cpu1.iq.FU_type_0::FloatDiv                  0      0.00%     65.28% # Type of FU issued
system.cpu1.iq.FU_type_0::FloatMisc                 0      0.00%     65.28% # Type of FU issued
system.cpu1.iq.FU_type_0::FloatSqrt                 0      0.00%     65.28% # Type of FU issued
system.cpu1.iq.FU_type_0::SimdAdd                   0      0.00%     65.28% # Type of FU issued
system.cpu1.iq.FU_type_0::SimdAddAcc                0      0.00%     65.28% # Type of FU issued
system.cpu1.iq.FU_type_0::SimdAlu                   0      0.00%     65.28% # Type of FU issued
system.cpu1.iq.FU_type_0::SimdCmp                   0      0.00%     65.28% # Type of FU issued
system.cpu1.iq.FU_type_0::SimdCvt                   0      0.00%     65.28% # Type of FU issued
system.cpu1.iq.FU_type_0::SimdMisc                  0      0.00%     65.28% # Type of FU issued
system.cpu1.iq.FU_type_0::SimdMult                  0      0.00%     65.28% # Type of FU issued
system.cpu1.iq.FU_type_0::SimdMultAcc               0      0.00%     65.28% # Type of FU issued
system.cpu1.iq.FU_type_0::SimdShift                 0      0.00%     65.28% # Type of FU issued
system.cpu1.iq.FU_type_0::SimdShiftAcc              0      0.00%     65.28% # Type of FU issued
system.cpu1.iq.FU_type_0::SimdDiv                   0      0.00%     65.28% # Type of FU issued
system.cpu1.iq.FU_type_0::SimdSqrt                  0      0.00%     65.28% # Type of FU issued
system.cpu1.iq.FU_type_0::SimdFloatAdd              0      0.00%     65.28% # Type of FU issued
system.cpu1.iq.FU_type_0::SimdFloatAlu              0      0.00%     65.28% # Type of FU issued
system.cpu1.iq.FU_type_0::SimdFloatCmp              0      0.00%     65.28% # Type of FU issued
system.cpu1.iq.FU_type_0::SimdFloatCvt              0      0.00%     65.28% # Type of FU issued
system.cpu1.iq.FU_type_0::SimdFloatDiv              0      0.00%     65.28% # Type of FU issued
system.cpu1.iq.FU_type_0::SimdFloatMisc             0      0.00%     65.28% # Type of FU issued
system.cpu1.iq.FU_type_0::SimdFloatMult             0      0.00%     65.28% # Type of FU issued
system.cpu1.iq.FU_type_0::SimdFloatMultAcc            0      0.00%     65.28% # Type of FU issued
system.cpu1.iq.FU_type_0::SimdFloatSqrt             0      0.00%     65.28% # Type of FU issued
system.cpu1.iq.FU_type_0::SimdReduceAdd             0      0.00%     65.28% # Type of FU issued
system.cpu1.iq.FU_type_0::SimdReduceAlu             0      0.00%     65.28% # Type of FU issued
system.cpu1.iq.FU_type_0::SimdReduceCmp             0      0.00%     65.28% # Type of FU issued
system.cpu1.iq.FU_type_0::SimdFloatReduceAdd            0      0.00%     65.28% # Type of FU issued
system.cpu1.iq.FU_type_0::SimdFloatReduceCmp            0      0.00%     65.28% # Type of FU issued
system.cpu1.iq.FU_type_0::SimdAes                   0      0.00%     65.28% # Type of FU issued
system.cpu1.iq.FU_type_0::SimdAesMix                0      0.00%     65.28% # Type of FU issued
system.cpu1.iq.FU_type_0::SimdSha1Hash              0      0.00%     65.28% # Type of FU issued
system.cpu1.iq.FU_type_0::SimdSha1Hash2             0      0.00%     65.28% # Type of FU issued
system.cpu1.iq.FU_type_0::SimdSha256Hash            0      0.00%     65.28% # Type of FU issued
system.cpu1.iq.FU_type_0::SimdSha256Hash2            0      0.00%     65.28% # Type of FU issued
system.cpu1.iq.FU_type_0::SimdShaSigma2             0      0.00%     65.28% # Type of FU issued
system.cpu1.iq.FU_type_0::SimdShaSigma3             0      0.00%     65.28% # Type of FU issued
system.cpu1.iq.FU_type_0::SimdPredAlu               0      0.00%     65.28% # Type of FU issued
system.cpu1.iq.FU_type_0::MemRead            19219138     29.46%     94.74% # Type of FU issued
system.cpu1.iq.FU_type_0::MemWrite            3428884      5.26%    100.00% # Type of FU issued
system.cpu1.iq.FU_type_0::FloatMemRead              0      0.00%    100.00% # Type of FU issued
system.cpu1.iq.FU_type_0::FloatMemWrite            12      0.00%    100.00% # Type of FU issued
system.cpu1.iq.FU_type_0::IprAccess                 0      0.00%    100.00% # Type of FU issued
system.cpu1.iq.FU_type_0::InstPrefetch              0      0.00%    100.00% # Type of FU issued
system.cpu1.iq.FU_type_0::total              65228426                       # Type of FU issued
system.cpu1.iq.fp_alu_accesses                     15                       # Number of floating point alu accesses
system.cpu1.iq.fp_inst_queue_reads                 27                       # Number of floating instruction queue reads
system.cpu1.iq.fp_inst_queue_wakeup_accesses           12                       # Number of floating instruction queue wakeup accesses
system.cpu1.iq.fp_inst_queue_writes                12                       # Number of floating instruction queue writes
system.cpu1.iq.fu_busy_cnt                    1926304                       # FU busy when requested
system.cpu1.iq.fu_busy_rate                  0.029532                       # FU busy rate (busy events/executed inst)
system.cpu1.iq.fu_full::No_OpClass                  0      0.00%      0.00% # attempts to use FU when none available
system.cpu1.iq.fu_full::IntAlu                 329082     17.08%     17.08% # attempts to use FU when none available
system.cpu1.iq.fu_full::IntMult                     0      0.00%     17.08% # attempts to use FU when none available
system.cpu1.iq.fu_full::IntDiv                      0      0.00%     17.08% # attempts to use FU when none available
system.cpu1.iq.fu_full::FloatAdd                    0      0.00%     17.08% # attempts to use FU when none available
system.cpu1.iq.fu_full::FloatCmp                    0      0.00%     17.08% # attempts to use FU when none available
system.cpu1.iq.fu_full::FloatCvt                    0      0.00%     17.08% # attempts to use FU when none available
system.cpu1.iq.fu_full::FloatMult                   0      0.00%     17.08% # attempts to use FU when none available
system.cpu1.iq.fu_full::FloatMultAcc                0      0.00%     17.08% # attempts to use FU when none available
system.cpu1.iq.fu_full::FloatDiv                    0      0.00%     17.08% # attempts to use FU when none available
system.cpu1.iq.fu_full::FloatMisc                   0      0.00%     17.08% # attempts to use FU when none available
system.cpu1.iq.fu_full::FloatSqrt                   0      0.00%     17.08% # attempts to use FU when none available
system.cpu1.iq.fu_full::SimdAdd                     0      0.00%     17.08% # attempts to use FU when none available
system.cpu1.iq.fu_full::SimdAddAcc                  0      0.00%     17.08% # attempts to use FU when none available
system.cpu1.iq.fu_full::SimdAlu                     0      0.00%     17.08% # attempts to use FU when none available
system.cpu1.iq.fu_full::SimdCmp                     0      0.00%     17.08% # attempts to use FU when none available
system.cpu1.iq.fu_full::SimdCvt                     0      0.00%     17.08% # attempts to use FU when none available
system.cpu1.iq.fu_full::SimdMisc                    0      0.00%     17.08% # attempts to use FU when none available
system.cpu1.iq.fu_full::SimdMult                    0      0.00%     17.08% # attempts to use FU when none available
system.cpu1.iq.fu_full::SimdMultAcc                 0      0.00%     17.08% # attempts to use FU when none available
system.cpu1.iq.fu_full::SimdShift                   0      0.00%     17.08% # attempts to use FU when none available
system.cpu1.iq.fu_full::SimdShiftAcc                0      0.00%     17.08% # attempts to use FU when none available
system.cpu1.iq.fu_full::SimdDiv                     0      0.00%     17.08% # attempts to use FU when none available
system.cpu1.iq.fu_full::SimdSqrt                    0      0.00%     17.08% # attempts to use FU when none available
system.cpu1.iq.fu_full::SimdFloatAdd                0      0.00%     17.08% # attempts to use FU when none available
system.cpu1.iq.fu_full::SimdFloatAlu                0      0.00%     17.08% # attempts to use FU when none available
system.cpu1.iq.fu_full::SimdFloatCmp                0      0.00%     17.08% # attempts to use FU when none available
system.cpu1.iq.fu_full::SimdFloatCvt                0      0.00%     17.08% # attempts to use FU when none available
system.cpu1.iq.fu_full::SimdFloatDiv                0      0.00%     17.08% # attempts to use FU when none available
system.cpu1.iq.fu_full::SimdFloatMisc               0      0.00%     17.08% # attempts to use FU when none available
system.cpu1.iq.fu_full::SimdFloatMult               0      0.00%     17.08% # attempts to use FU when none available
system.cpu1.iq.fu_full::SimdFloatMultAcc            0      0.00%     17.08% # attempts to use FU when none available
system.cpu1.iq.fu_full::SimdFloatSqrt               0      0.00%     17.08% # attempts to use FU when none available
system.cpu1.iq.fu_full::SimdReduceAdd               0      0.00%     17.08% # attempts to use FU when none available
system.cpu1.iq.fu_full::SimdReduceAlu               0      0.00%     17.08% # attempts to use FU when none available
system.cpu1.iq.fu_full::SimdReduceCmp               0      0.00%     17.08% # attempts to use FU when none available
system.cpu1.iq.fu_full::SimdFloatReduceAdd            0      0.00%     17.08% # attempts to use FU when none available
system.cpu1.iq.fu_full::SimdFloatReduceCmp            0      0.00%     17.08% # attempts to use FU when none available
system.cpu1.iq.fu_full::SimdAes                     0      0.00%     17.08% # attempts to use FU when none available
system.cpu1.iq.fu_full::SimdAesMix                  0      0.00%     17.08% # attempts to use FU when none available
system.cpu1.iq.fu_full::SimdSha1Hash                0      0.00%     17.08% # attempts to use FU when none available
system.cpu1.iq.fu_full::SimdSha1Hash2               0      0.00%     17.08% # attempts to use FU when none available
system.cpu1.iq.fu_full::SimdSha256Hash              0      0.00%     17.08% # attempts to use FU when none available
system.cpu1.iq.fu_full::SimdSha256Hash2             0      0.00%     17.08% # attempts to use FU when none available
system.cpu1.iq.fu_full::SimdShaSigma2               0      0.00%     17.08% # attempts to use FU when none available
system.cpu1.iq.fu_full::SimdShaSigma3               0      0.00%     17.08% # attempts to use FU when none available
system.cpu1.iq.fu_full::SimdPredAlu                 0      0.00%     17.08% # attempts to use FU when none available
[...]
system.cpu1.dcache.ReadReq_avg_miss_latency::total 94238.036721                       # average ReadReq miss latency
system.cpu1.dcache.ReadReq_mshr_hits::.cpu1.data     90331942                       # number of ReadReq MSHR hits
system.cpu1.dcache.ReadReq_mshr_hits::total     90331942                       # number of ReadReq MSHR hits
system.cpu1.dcache.ReadReq_mshr_misses::.cpu1.data    124536221                       # number of ReadReq MSHR misses
system.cpu1.dcache.ReadReq_mshr_misses::total    124536221                       # number of ReadReq MSHR misses
system.cpu1.dcache.ReadReq_mshr_miss_latency::.cpu1.data 13796978400500                       # number of ReadReq MSHR miss cycles
system.cpu1.dcache.ReadReq_mshr_miss_latency::total 13796978400500                       # number of ReadReq MSHR miss cycles
system.cpu1.dcache.ReadReq_mshr_miss_rate::.cpu1.data     0.328368                       # mshr miss rate for ReadReq accesses
system.cpu1.dcache.ReadReq_mshr_miss_rate::total     0.328368                       # mshr miss rate for ReadReq accesses
system.cpu1.dcache.ReadReq_avg_mshr_miss_latency::.cpu1.data 110786.872202                       # average ReadReq mshr miss latency
system.cpu1.dcache.ReadReq_avg_mshr_miss_latency::total 110786.872202                       # average ReadReq mshr miss latency
system.cpu1.dcache.WriteReq_hits::.cpu1.data     17868041                       # number of WriteReq hits
system.cpu1.dcache.WriteReq_hits::total      17868041                       # number of WriteReq hits
system.cpu1.dcache.WriteReq_misses::.cpu1.data      7928390                       # number of WriteReq misses
system.cpu1.dcache.WriteReq_misses::total      7928390                       # number of WriteReq misses
system.cpu1.dcache.WriteReq_miss_latency::.cpu1.data 423128953616                       # number of WriteReq miss cycles
system.cpu1.dcache.WriteReq_miss_latency::total 423128953616                       # number of WriteReq miss cycles
system.cpu1.dcache.WriteReq_accesses::.cpu1.data     25796431                       # number of WriteReq accesses(hits+misses)
system.cpu1.dcache.WriteReq_accesses::total     25796431                       # number of WriteReq accesses(hits+misses)
system.cpu1.dcache.WriteReq_miss_rate::.cpu1.data     0.307344                       # miss rate for WriteReq accesses
system.cpu1.dcache.WriteReq_miss_rate::total     0.307344                       # miss rate for WriteReq accesses
system.cpu1.dcache.WriteReq_avg_miss_latency::.cpu1.data 53368.837004                       # average WriteReq miss latency
system.cpu1.dcache.WriteReq_avg_miss_latency::total 53368.837004                       # average WriteReq miss latency
system.cpu1.dcache.WriteReq_mshr_hits::.cpu1.data      6333583                       # number of WriteReq MSHR hits
system.cpu1.dcache.WriteReq_mshr_hits::total      6333583                       # number of WriteReq MSHR hits
system.cpu1.dcache.WriteReq_mshr_misses::.cpu1.data      1594807                       # number of WriteReq MSHR misses
system.cpu1.dcache.WriteReq_mshr_misses::total      1594807                       # number of WriteReq MSHR misses
system.cpu1.dcache.WriteReq_mshr_miss_latency::.cpu1.data  91312318365                       # number of WriteReq MSHR miss cycles
system.cpu1.dcache.WriteReq_mshr_miss_latency::total  91312318365                       # number of WriteReq MSHR miss cycles
system.cpu1.dcache.WriteReq_mshr_miss_rate::.cpu1.data     0.061823                       # mshr miss rate for WriteReq accesses
system.cpu1.dcache.WriteReq_mshr_miss_rate::total     0.061823                       # mshr miss rate for WriteReq accesses
system.cpu1.dcache.WriteReq_avg_mshr_miss_latency::.cpu1.data 57256.030582                       # average WriteReq mshr miss latency
system.cpu1.dcache.WriteReq_avg_mshr_miss_latency::total 57256.030582                       # average WriteReq mshr miss latency
system.cpu1.dcache.LoadLockedReq_hits::.cpu1.data         6756                       # number of LoadLockedReq hits
system.cpu1.dcache.LoadLockedReq_hits::total         6756                       # number of LoadLockedReq hits
system.cpu1.dcache.LoadLockedReq_misses::.cpu1.data         1558                       # number of LoadLockedReq misses
system.cpu1.dcache.LoadLockedReq_misses::total         1558                       # number of LoadLockedReq misses
system.cpu1.dcache.LoadLockedReq_miss_latency::.cpu1.data     82917000                       # number of LoadLockedReq miss cycles
system.cpu1.dcache.LoadLockedReq_miss_latency::total     82917000                       # number of LoadLockedReq miss cycles
system.cpu1.dcache.LoadLockedReq_accesses::.cpu1.data         8314                       # number of LoadLockedReq accesses(hits+misses)
system.cpu1.dcache.LoadLockedReq_accesses::total         8314                       # number of LoadLockedReq accesses(hits+misses)
system.cpu1.dcache.LoadLockedReq_miss_rate::.cpu1.data     0.187395                       # miss rate for LoadLockedReq accesses
system.cpu1.dcache.LoadLockedReq_miss_rate::total     0.187395                       # miss rate for LoadLockedReq accesses
system.cpu1.dcache.LoadLockedReq_avg_miss_latency::.cpu1.data 53220.154044                       # average LoadLockedReq miss latency
system.cpu1.dcache.LoadLockedReq_avg_miss_latency::total 53220.154044                       # average LoadLockedReq miss latency
system.cpu1.dcache.LoadLockedReq_mshr_hits::.cpu1.data         1409                       # number of LoadLockedReq MSHR hits
system.cpu1.dcache.LoadLockedReq_mshr_hits::total         1409                       # number of LoadLockedReq MSHR hits
system.cpu1.dcache.LoadLockedReq_mshr_misses::.cpu1.data          149                       # number of LoadLockedReq MSHR misses
system.cpu1.dcache.LoadLockedReq_mshr_misses::total          149                       # number of LoadLockedReq MSHR misses
system.cpu1.dcache.LoadLockedReq_mshr_miss_latency::.cpu1.data      2410500                       # number of LoadLockedReq MSHR miss cycles
system.cpu1.dcache.LoadLockedReq_mshr_miss_latency::total      2410500                       # number of LoadLockedReq MSHR miss cycles
system.cpu1.dcache.LoadLockedReq_mshr_miss_rate::.cpu1.data     0.017922                       # mshr miss rate for LoadLockedReq accesses
system.cpu1.dcache.LoadLockedReq_mshr_miss_rate::total     0.017922                       # mshr miss rate for LoadLockedReq accesses
system.cpu1.dcache.LoadLockedReq_avg_mshr_miss_latency::.cpu1.data 16177.852349                       # average LoadLockedReq mshr miss latency
system.cpu1.dcache.LoadLockedReq_avg_mshr_miss_latency::total 16177.852349                       # average LoadLockedReq mshr miss latency
system.cpu1.dcache.StoreCondReq_hits::.cpu1.data         4477                       # number of StoreCondReq hits
system.cpu1.dcache.StoreCondReq_hits::total         4477                       # number of StoreCondReq hits
system.cpu1.dcache.StoreCondReq_misses::.cpu1.data         2758                       # number of StoreCondReq misses
system.cpu1.dcache.StoreCondReq_misses::total         2758                       # number of StoreCondReq misses
system.cpu1.dcache.StoreCondReq_miss_latency::.cpu1.data     17971000                       # number of StoreCondReq miss cycles
system.cpu1.dcache.StoreCondReq_miss_latency::total     17971000                       # number of StoreCondReq miss cycles
system.cpu1.dcache.StoreCondReq_accesses::.cpu1.data         7235                       # number of StoreCondReq accesses(hits+misses)
system.cpu1.dcache.StoreCondReq_accesses::total         7235                       # number of StoreCondReq accesses(hits+misses)
system.cpu1.dcache.StoreCondReq_miss_rate::.cpu1.data     0.381202                       # miss rate for StoreCondReq accesses
system.cpu1.dcache.StoreCondReq_miss_rate::total     0.381202                       # miss rate for StoreCondReq accesses
system.cpu1.dcache.StoreCondReq_avg_miss_latency::.cpu1.data  6515.953590                       # average StoreCondReq miss latency
system.cpu1.dcache.StoreCondReq_avg_miss_latency::total  6515.953590                       # average StoreCondReq miss latency
system.cpu1.dcache.StoreCondReq_mshr_misses::.cpu1.data         2755                       # number of StoreCondReq MSHR misses
system.cpu1.dcache.StoreCondReq_mshr_misses::total         2755                       # number of StoreCondReq MSHR misses
system.cpu1.dcache.StoreCondReq_mshr_miss_latency::.cpu1.data     15216000                       # number of StoreCondReq MSHR miss cycles
system.cpu1.dcache.StoreCondReq_mshr_miss_latency::total     15216000                       # number of StoreCondReq MSHR miss cycles
system.cpu1.dcache.StoreCondReq_mshr_miss_rate::.cpu1.data     0.380788                       # mshr miss rate for StoreCondReq accesses
system.cpu1.dcache.StoreCondReq_mshr_miss_rate::total     0.380788                       # mshr miss rate for StoreCondReq accesses
system.cpu1.dcache.StoreCondReq_avg_mshr_miss_latency::.cpu1.data  5523.049002                       # average StoreCondReq mshr miss latency
system.cpu1.dcache.StoreCondReq_avg_mshr_miss_latency::total  5523.049002                       # average StoreCondReq mshr miss latency
system.cpu1.dcache.SwapReq_hits::.cpu1.data         3992                       # number of SwapReq hits
system.cpu1.dcache.SwapReq_hits::total           3992                       # number of SwapReq hits
system.cpu1.dcache.SwapReq_misses::.cpu1.data       194633                       # number of SwapReq misses
system.cpu1.dcache.SwapReq_misses::total       194633                       # number of SwapReq misses
system.cpu1.dcache.SwapReq_miss_latency::.cpu1.data   4662694000                       # number of SwapReq miss cycles
system.cpu1.dcache.SwapReq_miss_latency::total   4662694000                       # number of SwapReq miss cycles
system.cpu1.dcache.SwapReq_accesses::.cpu1.data       198625                       # number of SwapReq accesses(hits+misses)
system.cpu1.dcache.SwapReq_accesses::total       198625                       # number of SwapReq accesses(hits+misses)
system.cpu1.dcache.SwapReq_miss_rate::.cpu1.data     0.979902                       # miss rate for SwapReq accesses
system.cpu1.dcache.SwapReq_miss_rate::total     0.979902                       # miss rate for SwapReq accesses
system.cpu1.dcache.SwapReq_avg_miss_latency::.cpu1.data 23956.338339                       # average SwapReq miss latency
system.cpu1.dcache.SwapReq_avg_miss_latency::total 23956.338339                       # average SwapReq miss latency
system.cpu1.dcache.SwapReq_mshr_misses::.cpu1.data       194633                       # number of SwapReq MSHR misses
system.cpu1.dcache.SwapReq_mshr_misses::total       194633                       # number of SwapReq MSHR misses
system.cpu1.dcache.SwapReq_mshr_miss_latency::.cpu1.data   4468061000                       # number of SwapReq MSHR miss cycles
system.cpu1.dcache.SwapReq_mshr_miss_latency::total   4468061000                       # number of SwapReq MSHR miss cycles
system.cpu1.dcache.SwapReq_mshr_miss_rate::.cpu1.data     0.979902                       # mshr miss rate for SwapReq accesses
system.cpu1.dcache.SwapReq_mshr_miss_rate::total     0.979902                       # mshr miss rate for SwapReq accesses
system.cpu1.dcache.SwapReq_avg_mshr_miss_latency::.cpu1.data 22956.338339                       # average SwapReq mshr miss latency
system.cpu1.dcache.SwapReq_avg_mshr_miss_latency::total 22956.338339                       # average SwapReq mshr miss latency
system.cpu1.dcache.tags.pwrStateResidencyTicks::UNDEFINED 3882162931500                       # Cumulative time (in ticks) in various power states
system.cpu1.dcache.tags.tagsinuse           31.969560                       # Cycle average of tags in use
system.cpu1.dcache.tags.total_refs          308682116                       # Total number of references to valid blocks.
system.cpu1.dcache.tags.sampled_refs        126200700                       # Sample count of references to valid blocks.
system.cpu1.dcache.tags.avg_refs             2.445962                       # Average number of references to valid blocks.
system.cpu1.dcache.tags.warmup_cycle                0                       # Cycle when the warmup percentage was hit.
system.cpu1.dcache.tags.occ_blocks::.cpu1.data    31.969560                       # Average occupied blocks per requestor
system.cpu1.dcache.tags.occ_percent::.cpu1.data     0.999049                       # Average percentage of cache occupancy
system.cpu1.dcache.tags.occ_percent::total     0.999049                       # Average percentage of cache occupancy
system.cpu1.dcache.tags.occ_task_id_blocks::1024           27                       # Occupied blocks per task id
system.cpu1.dcache.tags.age_task_id_blocks_1024::1           27                       # Occupied blocks per task id
system.cpu1.dcache.tags.occ_task_id_percent::1024     0.843750                       # Percentage of cache occupancy per task id
system.cpu1.dcache.tags.tag_accesses        936737696                       # Number of tag accesses
system.cpu1.dcache.tags.data_accesses       936737696                       # Number of data accesses
system.cpu_clk_domain.clock                       500                       # Clock period in ticks
system.tol2bus.pwrStateResidencyTicks::UNDEFINED 3882162931500                       # Cumulative time (in ticks) in various power states
system.tol2bus.trans_dist::ReadResp         249307402                       # Transaction distribution
system.tol2bus.trans_dist::WritebackDirty     12017281                       # Transaction distribution
system.tol2bus.trans_dist::WritebackClean    245491819                       # Transaction distribution
system.tol2bus.trans_dist::CleanEvict       813207906                       # Transaction distribution
system.tol2bus.trans_dist::HardPFReq        645907239                       # Transaction distribution
system.tol2bus.trans_dist::HardPFResp             195                       # Transaction distribution
system.tol2bus.trans_dist::UpgradeReq          294991                       # Transaction distribution
system.tol2bus.trans_dist::SCUpgradeReq          5108                       # Transaction distribution
system.tol2bus.trans_dist::UpgradeResp         300099                       # Transaction distribution
system.tol2bus.trans_dist::SCUpgradeFailReq            1                       # Transaction distribution
system.tol2bus.trans_dist::UpgradeFailResp            1                       # Transaction distribution
system.tol2bus.trans_dist::ReadExReq          3355580                       # Transaction distribution
system.tol2bus.trans_dist::ReadExResp         3355580                       # Transaction distribution
system.tol2bus.trans_dist::ReadCleanReq        183208                       # Transaction distribution
system.tol2bus.trans_dist::ReadSharedReq    249124196                       # Transaction distribution
system.tol2bus.pkt_count_system.cpu0.icache.mem_side::system.l2.cpu_side       443650                       # Packet count per connected master and slave (bytes)
system.tol2bus.pkt_count_system.cpu0.dcache.mem_side::system.l2.cpu_side    378571102                       # Packet count per connected master and slave (bytes)
system.tol2bus.pkt_count_system.cpu1.icache.mem_side::system.l2.cpu_side       105972                       # Packet count per connected master and slave (bytes)
system.tol2bus.pkt_count_system.cpu1.dcache.mem_side::system.l2.cpu_side    378332616                       # Packet count per connected master and slave (bytes)
system.tol2bus.pkt_count::total             757453340                       # Packet count per connected master and slave (bytes)
system.tol2bus.pkt_size_system.cpu0.icache.mem_side::system.l2.cpu_side     18929024                       # Cumulative packet size per connected master and slave (bytes)
system.tol2bus.pkt_size_system.cpu0.dcache.mem_side::system.l2.cpu_side  16134510272                       # Cumulative packet size per connected master and slave (bytes)
system.tol2bus.pkt_size_system.cpu1.icache.mem_side::system.l2.cpu_side      4521472                       # Cumulative packet size per connected master and slave (bytes)
system.tol2bus.pkt_size_system.cpu1.dcache.mem_side::system.l2.cpu_side  16124206656                       # Cumulative packet size per connected master and slave (bytes)
system.tol2bus.pkt_size::total            32282167424                       # Cumulative packet size per connected master and slave (bytes)
system.tol2bus.snoops                      1465097461                       # Total snoops (count)
system.tol2bus.snoopTraffic                 368870848                       # Total snoop traffic (bytes)
system.tol2bus.snoop_fanout::samples       1717935280                       # Request fanout histogram
system.tol2bus.snoop_fanout::mean            0.146410                       # Request fanout histogram
system.tol2bus.snoop_fanout::stdev           0.361653                       # Request fanout histogram
system.tol2bus.snoop_fanout::underflows             0      0.00%      0.00% # Request fanout histogram
system.tol2bus.snoop_fanout::0             1471409614     85.65%     85.65% # Request fanout histogram
system.tol2bus.snoop_fanout::1              241527580     14.06%     99.71% # Request fanout histogram
system.tol2bus.snoop_fanout::2                4998086      0.29%    100.00% # Request fanout histogram
system.tol2bus.snoop_fanout::3                      0      0.00%    100.00% # Request fanout histogram
system.tol2bus.snoop_fanout::4                      0      0.00%    100.00% # Request fanout histogram
system.tol2bus.snoop_fanout::5                      0      0.00%    100.00% # Request fanout histogram
system.tol2bus.snoop_fanout::6                      0      0.00%    100.00% # Request fanout histogram
system.tol2bus.snoop_fanout::7                      0      0.00%    100.00% # Request fanout histogram
system.tol2bus.snoop_fanout::8                      0      0.00%    100.00% # Request fanout histogram
system.tol2bus.snoop_fanout::overflows              0      0.00%    100.00% # Request fanout histogram
system.tol2bus.snoop_fanout::min_value              0                       # Request fanout histogram
system.tol2bus.snoop_fanout::max_value              2                       # Request fanout histogram
system.tol2bus.snoop_fanout::total         1717935280                       # Request fanout histogram
system.tol2bus.reqLayer0.occupancy       506561628841                       # Layer occupancy (ticks)
system.tol2bus.reqLayer0.utilization             13.0                       # Layer utilization (%)
system.tol2bus.respLayer1.occupancy      189721294082                       # Layer occupancy (ticks)
system.tol2bus.respLayer1.utilization             4.9                       # Layer utilization (%)
system.tol2bus.respLayer0.occupancy         222080487                       # Layer occupancy (ticks)
system.tol2bus.respLayer0.utilization             0.0                       # Layer utilization (%)
system.tol2bus.respLayer3.occupancy      189605699023                       # Layer occupancy (ticks)
system.tol2bus.respLayer3.utilization             4.9                       # Layer utilization (%)
system.tol2bus.respLayer2.occupancy          53322825                       # Layer occupancy (ticks)
system.tol2bus.respLayer2.utilization             0.0                       # Layer utilization (%)
system.tol2bus.snoopLayer0.occupancy           292669                       # Layer occupancy (ticks)
system.tol2bus.snoopLayer0.utilization            0.0                       # Layer utilization (%)

---------- End Simulation Statistics   ----------
