Redirecting stdout to /vol1/msoyturk/gem5/results/sssp/gowalla.el/prefetch_IndirectMemoryPrefetcher_BRRIPRP/output.txt
Redirecting stderr to /vol1/msoyturk/gem5/results/sssp/gowalla.el/prefetch_IndirectMemoryPrefetcher_BRRIPRP/error.txt
gem5 Simulator System.  http://gem5.org
gem5 is copyrighted software; use the --copyright option for details.

gem5 compiled Apr 26 2020 13:32:47
gem5 started Apr 30 2020 04:13:22
gem5 executing on draco, pid 1282
command line: /vol1/msoyturk/gem5/build/RISCV/gem5.fast -re --outdir=/vol1/msoyturk/gem5/results/sssp/gowalla.el/prefetch_IndirectMemoryPrefetcher_BRRIPRP --stdout-file=output.txt --stderr-file=error.txt /vol1/msoyturk/gem5/configs/example/my_se.py -c /vol1/msoyturk/gem5/gapbs/sssp -o '-f /vol1/msoyturk/gem5/gapbs/test/graphs/gowalla.el' --caches --l1d_size=2kB --l1i_size=2kB --cpu-type=DerivO3CPU -n 4 --mem-size=512MB --l2cache --l2_size=4kB --l2-hwp-type=IndirectMemoryPrefetcher --l2-replacement-policy=BRRIPRP --l1i_mshrs=4 --l1d_mshrs=4 --l2_mshrs=20 --l1i_write_buffers=8 --l1d_write_buffers=8 --l2_write_buffers=8

info: Standard input is not a terminal, disabling listeners.
Warning: l2-hwp-type is set ( IndirectMemoryPrefetcher ), but the current l2 has a default Hardware Prefetcher of type <class 'm5.params.NullSimObject'> , using the specified by the flag option.
Global frequency set at 1000000000000 ticks per second
**** REAL SIMULATION ****
Read Time:           1.89693
Build Time:          0.39323
Graph has 196591 nodes and 1900654 directed edges for degree: 9
    0          1     0.04804
   28          1     0.03045
   37          1     0.05781
   40          1     0.03126
   42          1     0.10027
   43          2     0.09463
   44          2     0.05287
   45          2     0.07621
   46          5     0.10025
   47          6     0.08593
   48          6     0.14229
   49          6     1.27626
   50         15     1.08260
   51         33     0.53936
   52         36     1.64883
   53         64     1.03560
   54         80     1.56770
   55        149     2.81998
   56        209     3.55339
   57        339     1.95222
   58        445     1.72565
   59        528     2.89303
   60        713     2.09821
   61        814     1.84066
   62        929     1.90772
   63       1038     1.80565
   64       1147     1.84506
   65       1174     1.58764
   66       1223     1.57142
   67       1272     1.47842
   68       1326     1.32991
   69       1495     1.45806
   70       1506     1.34451
   71       1481     1.21442
   72       1609     1.26760
   73       1567     1.14538
   74       1648     1.14254
   75       1587     1.08828
   76       1696     0.97470
   77       1652     0.90409
   78       1634     0.89322
   79       1625     0.91859
   80       1641     0.81981
   81       1745     0.86651
   82       1635     0.77165
   83       1702     0.76800
   84       1722     0.74918
   85       1673     0.69762
   86       1690     0.67697
   87       1687     0.69184
   88       1708     0.65558
   89       1610     0.58638
   90       1754     0.67363
   91       1794     0.65383
   92       1712     0.60463
   93       1743     0.63248
   94       1720     0.62099
   95       1696     0.56998
   96       1706     0.55552
   97       1686     0.56076
   98       1689     0.51653
   99       1689     0.49856
  100       1665     0.53546
  101       1674     0.52026
  102       1707     0.48821
  103       1697     0.50504
  104       1694     0.46370
  105       1581     0.44015
  106       1691     0.43150
  107       1651     0.42718
  108       1612     0.42915
  109       1564     0.38426
  110       1679     0.42306
  111       1658     0.40657
  112       1644     0.37312
  113       1600     0.37762
  114       1565     0.36783
  115       1587     0.36839
  116       1510     0.32736
  117       1651     0.35884
  118       1607     0.33147
  119       1673     0.36913
  120       1669     0.36144
  121       1589     0.31797
  122       1697     0.35544
  123       1604     0.31406
  124       1611     0.31367
  125       1595     0.30379
  126       1545     0.32090
  127       1532     0.30093
  128       1549     0.29151
  129       1616     0.29477
  130       1546     0.30070
  131       1508     0.27269
  132       1566     0.30040
  133       1499     0.27643
  134       1511     0.27593
  135       1499     0.25737
  136       1537     0.26609
  137       1458     0.24508
  138       1482     0.24713
  139       1407     0.26230
  140       1500     0.24307
  141       1472     0.22781
  142       1483     0.24405
  143       1518     0.24821
  144       1462     0.25365
  145       1468     0.22246
  146       1451     0.22691
  147       1411     0.22945
  148       1437     0.22140
  149       1431     0.22466
  150       1355     0.21275
  151       1440     0.21040
  152       1532     0.23264
  153       1393     0.20214
  154       1383     0.20567
  155       1398     0.19472
  156       1319     0.20044
  157       1320     0.17138
  158       1339     0.18514
  159       1375     0.19001
  160       1382     0.19653
  161       1251     0.18146
  162       1380     0.18645
  163       1323     0.17351
  164       1354     0.18340
  165       1330     0.18249
  166       1389     0.18118
  167       1301     0.18175
  168       1297     0.18373
  169       1260     0.15601
  170       1305     0.16939
  171       1293     0.17473
  172       1295     0.15302
  173       1312     0.15908
  174       1295     0.16726
  175       1263     0.14243
  176       1274     0.14991
  177       1309     0.16624
  178       1226     0.15699
  179       1245     0.14631
  180       1259     0.14499
  181       1260     0.16355
  182       1242     0.14540
  183       1211     0.14544
  184       1278     0.16235
  185       1184     0.14113
  186       1170     0.14018
  187       1204     0.15040
  188       1164     0.14416
  189       1216     0.15379
  190       1190     0.13345
  191       1194     0.13913
  192       1177     0.14072
  193       1142     0.13515
  194       1165     0.12932
  195       1139     0.14064
  196       1169     0.13550
  197       1183     0.13592
  198       1132     0.12144
  199       1124     0.12277
  200       1166     0.13583
  201       1200     0.13399
  202       1108     0.12064
  203       1151     0.14049
  204       1120     0.11973
  205       1123     0.11055
  206       1115     0.11605
  207       1104     0.12468
  208       1089     0.11083
  209       1108     0.12799
  210       1102     0.12104
  211       1110     0.12102
  212       1101     0.12059
  213       1093     0.12185
  214       1122     0.10967
  215       1113     0.10701
  216       1057     0.10898
  217       1066     0.11786
  218       1106     0.11181
  219       1076     0.10943
  220       1071     0.10838
  221       1024     0.10500
  222       1073     0.12046
  223       1089     0.10274
  224       1073     0.10696
  225       1025     0.11389
  226       1031     0.10888
  227       1068     0.10330
  228        969     0.11027
  229        976     0.09125
  230       1077     0.11621
  231       1022     0.09508
  232       1048     0.10814
  233       1047     0.10835
  234       1031     0.10510
  235       1002     0.08807
  236       1006     0.10469
  237        961     0.09197
  238       1021     0.09265
  239       1044     0.10399
  240        990     0.09572
  241        974     0.09018
  242       1001     0.09274
  243        981     0.08871
  244        971     0.08301
  245        973     0.08318
  246        995     0.08794
  247        977     0.10257
  248        966     0.09016
  249        966     0.08889
  250        993     0.08757
  251        964     0.08612
  252        980     0.08535
  253        925     0.08542
  254        930     0.07489
  255        940     0.07937
  256        949     0.09409
  257        913     0.07957
  258        948     0.09142
  259        999     0.08643
  260        910     0.08362
  261        938     0.08202
  262        913     0.08532
  263        882     0.07851
  264        895     0.08097
  265        926     0.07572
  266        915     0.06961
  267        939     0.08902
  268        894     0.08701
  269        873     0.07331
  270        903     0.08986
  271        885     0.08047
  272        893     0.08752
  273        892     0.08376
  274        878     0.07090
  275        899     0.07929
  276        949     0.09244
  277        927     0.08356
  278        874     0.07646
  279        866     0.07922
  280        934     0.08796
  281        886     0.07945
  282        852     0.07991
  283        857     0.07802
  284        879     0.07698
  285        862     0.06731
  286        840     0.07218
  287        876     0.07742
  288        831     0.07207
  289        886     0.06843
  290        864     0.07264
  291        822     0.07385
  292        821     0.06728
  293        876     0.06827
  294        886     0.07258
  295        847     0.06405
  296        869     0.07333
  297        835     0.07705
  298        868     0.07364
  299        880     0.06874
  300        852     0.06029
  301        821     0.06404
  302        823     0.07285
  303        790     0.06163
  304        819     0.06424
  305        831     0.06815
  306        800     0.06908
  307        768     0.05828
  308        763     0.07297
  309        723     0.05630
  310        766     0.07648
  311        665     0.05952
  312        660     0.06623
  313        622     0.05806
  314        610     0.05835
  315        611     0.05325
  316        513     0.05971
  317        501     0.05238
  318        466     0.04858
  319        482     0.04620
  320        469     0.05021
  321        448     0.04372
  322        471     0.05843
  323        423     0.04981
  324        412     0.04580
  325        410     0.05364
  326        365     0.04091
  327        405     0.04388
  328        368     0.03675
  329        324     0.04105
  330        343     0.04025
  331        311     0.03576
  332        332     0.04334
  333        316     0.03913
  334        335     0.04746
  335        279     0.03757
  336        316     0.03925
  337        275     0.04825
  338        283     0.03940
  339        282     0.03590
  340        269     0.03321
  341        318     0.04088
  342        273     0.04103
  343        239     0.02851
  344        239     0.03156
  345        232     0.03683
  346        243     0.03529
  347        235     0.03298
  348        234     0.02827
  349        219     0.02932
  350        215     0.02794
  351        213     0.03767
  352        191     0.03072
  353        190     0.03366
  354        215     0.03424
  355        225     0.03600
  356        209     0.02842
  357        202     0.03711
  358        201     0.03644
  359        176     0.03916
  360        168     0.02564
  361        149     0.02526
  362        168     0.03317
  363        183     0.02803
  364        164     0.03066
  365        175     0.03711
  366        163     0.03154
  367        146     0.02943
  368        150     0.02176
  369        160     0.02732
  370        154     0.02278
  371        166     0.02644
  372        137     0.01911
  373        141     0.02350
  374        151     0.02243
  375        145     0.02574
  376        121     0.02525
  377        143     0.02014
  378        128     0.02676
  379        127     0.02218
  380        111     0.02422
  381        135     0.02253
  382        126     0.03971
  383        107     0.02125
  384        108     0.02223
  385        124     0.02643
  386        111     0.02050
  387        126     0.02967
  388        118     0.01937
  389        100     0.02674
  390        107     0.01937
  391        107     0.01745
  392        122     0.02024
  393        122     0.02360
  394         96     0.02256
  395         96     0.02015
  396         92     0.01762
  397         92     0.02430
  398         98     0.02475
  399        104     0.02249
  400         97     0.02250
  401         92     0.02326
  402        102     0.02328
  403         82     0.01732
  404         88     0.02403
  405         68     0.02086
  406         76     0.02022
  407        103     0.02336
  408         83     0.02247
  409         89     0.02046
  410         87     0.02588
  411         65     0.02077
  412         83     0.02340
  413         96     0.02471
  414         68     0.01818
  415         80     0.02721
  416         78     0.02253
  417         85     0.02302
  418         86     0.02168
  419         64     0.02548
  420         66     0.01654
  421         69     0.02664
  422         72     0.01966
  423         72     0.02683
  424         75     0.02089
  425         74     0.02146
  426         72     0.02373
  427         53     0.01384
  428         69     0.02189
  429         64     0.02173
  430         68     0.01844
  431         74     0.02142
  432         57     0.01964
  433         57     0.01996
  434         51     0.01631
  435         63     0.01651
  436         52     0.02382
  437         61     0.01993
  438         64     0.02365
  439         57     0.02055
  440         50     0.01347
  441         61     0.02187
  442         43     0.01306
  443         49     0.01252
  444         51     0.02021
  445         59     0.01950
  446         50     0.01621
  447         62     0.02487
  448         58     0.02606
  449         49     0.01528
  450         40     0.01397
  451         47     0.01628
  452         60     0.02888
  453         42     0.02057
  454         49     0.02015
  455         45     0.02377
  456         38     0.01563
  457         46     0.01960
  458         51     0.01999
  459         34     0.01086
  460         37     0.02680
  461         43     0.01640
  462         46     0.01681
  463         45     0.01750
  464         45     0.02709
  465         39     0.01598
  466         49     0.01647
  467         40     0.01691
  468         43     0.01222
  469         38     0.01212
  470         32     0.01704
  471         37     0.01708
  472         44     0.01827
  473         35     0.01432
  474         38     0.01558
  475         43     0.01474
  476         48     0.01347
  477         36     0.02248
  478         40     0.01401
  479         53     0.02534
  480         35     0.01662
  481         33     0.01280
  482         42     0.01962
  483         44     0.02001
  484         42     0.01630
  485         36     0.01416
  486         32     0.02368
  487         28     0.01366
  488         38     0.02002
  489         27     0.01218
  490         29     0.01493
  491         25     0.00983
  492         22     0.01540
  493         28     0.01241
  494         23     0.01163
  495         27     0.01803
  496         21     0.00959
  497         30     0.01042
  498         28     0.01092
  499         23     0.01418
  500         24     0.01385
  501         24     0.01393
  502         29     0.01624
  503         30     0.01447
  504         30     0.01139
  505         24     0.01667
  506         31     0.01191
  507         29     0.01430
  508         23     0.01142
  509         25     0.01137
  510         19     0.01207
  511         23     0.00973
  512         23     0.01854
  513         20     0.01304
  514         20     0.01155
  515         28     0.01444
  516         34     0.01755
  517         21     0.01193
  518         28     0.00951
  519         27     0.01620
  520         19     0.00861
  521         30     0.01691
  522         25     0.01913
  523         30     0.01349
  524         20     0.01112
  525         27     0.01142
  526         19     0.00860
  527         31     0.01582
  528         22     0.01732
  529         19     0.02082
  530         20     0.01651
  531         25     0.01772
  532         22     0.01288
  533         20     0.01805
  534         18     0.01259
  535         22     0.01130
  536         18     0.01080
  537         20     0.01272
  538          5     0.00600
  539         26     0.01490
  540         12     0.00928
  541          7     0.01203
  542         24     0.00949
  543         10     0.00957
  544          5     0.00851
  545         19     0.01406
  546         15     0.00847
  547         14     0.01099
  548         11     0.00775
  549         11     0.01025
  550         12     0.00948
  551         10     0.00763
  552         15     0.01494
  553         18     0.01239
  554         13     0.01221
  555         22     0.01627
  556         13     0.01401
  557         13     0.00749
  558         16     0.00837
  559         14     0.00797
  560         10     0.01004
  561         15     0.01212
  562         23     0.01311
  563         11     0.01012
  564         13     0.00792
  565          9     0.01041
  566          7     0.00688
  567          7     0.00709
  568         11     0.00717
  569         14     0.00981
  570         12     0.00914
  571         11     0.00773
  572          6     0.00648
  573         12     0.00792
  574         14     0.00813
  575          6     0.00679
  576         12     0.00924
  577          7     0.00722
  578          5     0.00636
  579         13     0.01614
  580          4     0.00852
  581         11     0.00872
  582         11     0.01182
  583          6     0.00707
  584         10     0.00779
  585          4     0.00660
  586          9     0.00761
  587         10     0.00801
  588         14     0.01060
  589         12     0.00784
  590          9     0.00722
  591          8     0.01015
  592         11     0.00733
  593          7     0.00696
  594          6     0.00613
  595          6     0.00647
  596          7     0.01574
  597          9     0.00717
  598          8     0.00881
  599          5     0.00610
  600          6     0.00602
  601          9     0.00706
  602          7     0.00904
  603          8     0.01334
  604          3     0.00562
  605          7     0.00614
  606          7     0.00647
  607          3     0.00566
  608          8     0.01134
  609          6     0.01201
  610          4     0.00651
  611          8     0.00667
  612          7     0.00909
  613          4     0.00932
  614          8     0.00632
  615          7     0.00651
  616          5     0.00984
  617          6     0.00662
  618          6     0.00625
  619          5     0.00845
  620          5     0.00631
  621          4     0.00615
  622          4     0.00613
  623          3     0.00537
  624          4     0.00594
  625          4     0.00900
  626          4     0.01068
  627          5     0.00631
  628          8     0.00805
  629          6     0.00679
  630          4     0.00651
  631          9     0.00770
  632          6     0.00703
  634          3     0.00604
  635          7     0.00690
  636          3     0.01394
  637          5     0.00707
  638          1     0.00586
  639          7     0.00904
  640          1     0.00576
  641          5     0.00612
  642          3     0.00571
  643          6     0.00633
  644          3     0.00576
  645          6     0.00676
  646          3     0.00590
  647          2     0.00588
  648          8     0.00792
  649          2     0.01894
  650          1     0.00587
  651          3     0.01166
  652          4     0.00610
  653          4     0.00608
  654          5     0.00834
  655          5     0.00605
  656          5     0.00626
  657          3     0.00575
  658          7     0.00974
  659          5     0.00594
  660          2     0.03327
  661          2     0.00583
  662          4     0.00546
  663          1     0.00555
  664          6     0.01249
  665          2     0.00616
  666          5     0.01021
  667          2     0.00635
  668          6     0.00713
  669          3     0.00612
  670          2     0.00601
  671          2     0.00602
  672          3     0.00595
  673          3     0.00905
  674          2     0.00647
  675          3     0.00657
  676          2     0.00640
  679          1     0.00624
  680          3     0.00917
  681          1     0.00583
  682          1     0.00592
  683          2     0.00578
  684          4     0.00643
  685          3     0.03384
  686          4     0.00711
  687          1     0.00628
  688          8     0.01848
  689          1     0.00808
  690          3     0.00611
  691          1     0.00619
  692          1     0.00601
  693          2     0.00598
  695          1     0.00591
  696          2     0.00578
  697          3     0.00612
  698          1     0.00604
  700          3     0.00603
  701          1     0.00602
  702          3     0.00626
  704          1     0.00605
  705          2     0.00627
  706          1     0.00606
  707          2     0.01222
  708          1     0.00600
  709          2     0.00563
  710          3     0.00565
  711          2     0.00575
  712          2     0.00581
  713          1     0.01298
  714          2     0.00575
  715          1     0.00568
  716          1     0.01213
  718          2     0.00610
  719          1     0.00563
  720          4     0.00977
  722          2     0.00588
  724          1     0.00995
  725          4     0.00916
  726          5     0.00664
  727          2     0.00622
  728          1     0.00612
  729          3     0.00633
  731          2     0.00604
  732          5     0.00967
  733          3     0.00651
  734          2     0.00580
  735          2     0.00991
  737          1     0.00628
  739          1     0.00601
  740          3     0.00617
  742          3     0.00609
  743          1     0.00590
  744          4     0.00627
  745          1     0.00592
  746          3     0.00596
  747          1     0.00576
  749          2     0.00573
  750          1     0.01637
  751          1     0.00602
  753          3     0.00590
  754          1     0.00610
  755          2     0.01011
  756          3     0.01122
  757          1     0.00582
  758          2     0.00583
  759          1     0.00611
  760          2     0.00553
  761          3     0.00552
  762          1     0.00608
  765          2     0.00564
  766          1     0.00610
  768          1     0.00960
  770          2     0.00635
  771          2     0.00578
  772          3     0.00664
  774          1     0.00741
  775          1     0.00740
  776          2     0.00705
  777          2     0.00679
  782          1     0.00738
  783          2     0.00716
  784          1     0.00708
  785          2     0.00711
  787          2     0.00696
  788          1     0.00678
  789          2     0.00700
  793          1     0.00706
  794          2     0.00732
  797          1     0.00677
  798          1     0.00702
  800          1     0.00875
  801          2     0.01028
  803          2     0.00657
  804          1     0.00592
  805          1     0.01078
  809          1     0.00609
  818          2     0.00586
  819          1     0.00563
  820          1     0.00603
  824          1     0.00596
  826          1     0.00602
  828          2     0.00600
  831          1     0.00588
  837          2     0.00998
  840          1     0.00624
  843          1     0.00610
  845          1     0.00611
  850          1     0.00670
  851          1     0.00696
  857          1     0.00728
  860          1     0.01377
  866          1     0.01232
  875          1     0.00637
  877          3     0.00954
  886          1     0.00615
  887          1     0.00900
  895          1     0.00636
  901          1     0.00641
  904          2     0.00613
  908          1     0.00604
  912          1     0.00615
  914          1     0.00624
  919          1     0.00625
  929          1     0.00587
  937          1     0.00591
  938          1     0.00578
  939          1     0.00624
  940          1     0.00583
  944          1     0.00543
  951          1     0.00579
  959          1     0.00589
  962          2     0.00608
  968          1     0.00618
  983          1     0.00639
  987          1     0.00611
  990          1     0.00596
  994          1     0.00613
  997          1     0.00653
 1021          1     0.00571
 1067          1     0.00537
took 781 iterations
Trial Time:          0.12008
    0          1     0.02956
   48          1     0.00666
   80          1     0.00523
   83          1     0.03161
   93          1     0.02643
   94          1     0.01714
  102          1     0.00910
  105          1     0.02277
  117          1     0.02168
  125          2     0.01884
  127          1     0.01309
  130          1     0.02237
  132          3     0.02339
  135          1     0.00629
  139          1     0.07389
  142          1     3.67322
  143         37     0.19490
  144         48     0.76685
  145         45     0.33559
  146         60     0.97420
  147         74     0.44509
  148         88     1.26993
  149        106     1.87667
  150        138     1.25702
  151        197     1.69710
  152        247     4.04692
  153        375     1.99976
  154        476     2.12963
  155        629     2.24938
  156        704     1.87417
  157        856     2.30002
  158       1015     2.02299
  159       1079     1.97039
  160       1207     1.86452
  161       1231     1.61717
  162       1356     1.65130
  163       1331     1.45326
  164       1454     1.47079
  165       1542     1.35472
  166       1510     1.23767
  167       1560     1.21940
  168       1626     1.14702
  169       1657     1.19574
  170       1586     1.00714
  171       1608     1.04982
  172       1691     0.93375
  173       1688     0.93738
  174       1705     0.93692
  175       1737     0.93077
  176       1645     0.81165
  177       1704     0.79207
  178       1710     0.77840
  179       1765     0.77682
  180       1775     0.78080
  181       1709     0.71628
  182       1721     0.69642
  183       1643     0.63461
  184       1714     0.69259
  185       1660     0.62420
  186       1719     0.62101
  187       1719     0.60785
  188       1728     0.62516
  189       1677     0.58325
  190       1731     0.64124
  191       1697     0.55727
  192       1714     0.55910
  193       1666     0.54841
  194       1807     0.55427
  195       1689     0.49510
  196       1712     0.53422
  197       1764     0.50255
  198       1690     0.47859
  199       1706     0.46322
  200       1700     0.42589
  201       1636     0.41861
  202       1623     0.41022
  203       1657     0.41333
  204       1677     0.41065
  205       1629     0.39798
  206       1625     0.38487
  207       1670     0.39321
  208       1676     0.36027
  209       1583     0.36546
  210       1647     0.38848
  211       1632     0.34454
  212       1611     0.34397
  213       1634     0.33413
  214       1575     0.33540
  215       1665     0.34684
  216       1617     0.33893
  217       1644     0.32345
  218       1589     0.32429
  219       1600     0.30624
  220       1649     0.32214
  221       1610     0.29936
  222       1592     0.30195
  223       1491     0.29887
  224       1605     0.28316
  225       1542     0.31199
  226       1554     0.27096
  227       1537     0.26324
  228       1495     0.27783
  229       1546     0.26696
  230       1507     0.24461
  231       1444     0.25405
  232       1516     0.24761
  233       1508     0.27159
  234       1487     0.25662
  235       1474     0.25318
  236       1519     0.24955
  237       1420     0.22060
  238       1431     0.22135
  239       1499     0.25374
  240       1428     0.21653
  241       1422     0.20911
  242       1465     0.21626
  243       1444     0.22749
  244       1448     0.21890
  245       1434     0.22100
  246       1407     0.23035
  247       1382     0.20273
  248       1397     0.21775
  249       1377     0.21285
  250       1420     0.19589
  251       1374     0.18906
  252       1358     0.18485
  253       1351     0.18798
  254       1345     0.17130
  255       1394     0.19867
  256       1293     0.16858
  257       1325     0.17307
  258       1334     0.18103
  259       1280     0.17092
  260       1355     0.18370
  261       1268     0.16820
  262       1232     0.15546
  263       1347     0.19752
  264       1358     0.17785
  265       1280     0.16627
  266       1296     0.15577
  267       1274     0.16600
  268       1307     0.16128
  269       1225     0.16123
  270       1232     0.15812
  271       1166     0.15778
  272       1264     0.15260
  273       1285     0.15344
  274       1274     0.15561
  275       1244     0.15095
  276       1256     0.15443
  277       1235     0.14081
  278       1216     0.13957
  279       1248     0.15774
  280       1209     0.14360
  281       1156     0.12517
  282       1173     0.15244
  283       1217     0.15093
  284       1199     0.13949
  285       1217     0.15990
  286       1097     0.13745
  287       1178     0.13372
  288       1233     0.13946
  289       1163     0.13938
  290       1186     0.14820
  291       1115     0.13620
  292       1121     0.12334
  293       1112     0.13063
  294       1159     0.13311
  295       1126     0.11170
  296       1113     0.12759
  297       1145     0.13045
  298       1093     0.12031
  299       1129     0.12068
  300       1075     0.12415
  301       1159     0.11843
  302       1120     0.11583
  303       1092     0.11855
  304       1050     0.11625
  305       1146     0.12664
  306       1111     0.11953
  307       1111     0.12674
  308       1107     0.10642
  309       1075     0.11522
  310       1087     0.11807
  311       1065     0.10576
  312       1112     0.10732
  313       1114     0.10054
  314       1046     0.10815
  315       1104     0.10322
  316       1031     0.10529
  317       1095     0.10745
  318       1057     0.10854
  319       1102     0.10929
  320       1006     0.09585
  321       1019     0.10047
  322       1042     0.11315
  323       1050     0.09797
  324        968     0.10819
  325        987     0.11339
  326       1041     0.10235
  327       1067     0.09736
  328       1017     0.09394
  329       1029     0.09541
  330        974     0.09295
  331       1045     0.09464
  332       1047     0.10333
  333        985     0.09423
  334       1058     0.09466
  335       1014     0.09501
  336       1003     0.08377
  337       1029     0.09618
  338        992     0.09826
  339        987     0.09642
  340        976     0.08358
  341        945     0.09305
  342        945     0.09481
  343        956     0.09630
  344        994     0.08836
  345        929     0.08636
  346        956     0.09456
  347        943     0.08449
  348       1001     0.09402
  349        946     0.08469
  350        966     0.08560
  351        970     0.09570
  352        968     0.09172
  353        938     0.08464
  354        917     0.08412
  355        940     0.08300
  356        882     0.08048
  357        930     0.08792
  358        917     0.08023
  359        872     0.07755
  360        940     0.08419
  361        904     0.07395
  362        920     0.07966
  363        885     0.07979
  364        880     0.07906
  365        903     0.08122
  366        908     0.08221
  367        897     0.08244
  368        899     0.09019
  369        935     0.07369
  370        911     0.08193
  371        914     0.08379
  372        876     0.07594
  373        858     0.06707
  374        881     0.07470
  375        874     0.07941
  376        874     0.08552
  377        864     0.07555
  378        885     0.08429
  379        884     0.07160
  380        882     0.08885
  381        821     0.07070
  382        884     0.06472
  383        816     0.06632
  384        841     0.06305
  385        886     0.06980
  386        878     0.07171
  387        863     0.06676
  388        832     0.07721
  389        892     0.08008
  390        817     0.06765
  391        881     0.06481
  392        833     0.06670
  393        860     0.06635
  394        837     0.08554
  395        789     0.06446
  396        812     0.06651
  397        851     0.07004
  398        771     0.06399
  399        768     0.07289
  400        794     0.05858
  401        791     0.06627
  402        639     0.06862
  403        780     0.05980
  404        735     0.06601
  405        740     0.07402
  406        676     0.06096
  407        646     0.05772
  408        632     0.06180
  409        585     0.05869
  410        593     0.05910
  411        545     0.04748
  412        521     0.04864
  413        513     0.06428
  414        476     0.05207
  415        443     0.04600
  416        424     0.05318
  417        437     0.04921
  418        403     0.04345
  419        410     0.04206
  420        406     0.03911
  421        434     0.04855
  422        382     0.04747
  423        365     0.04491
  424        362     0.04721
  425        357     0.04347
  426        333     0.04394
  427        317     0.03785
  428        336     0.04488
  429        351     0.04025
  430        288     0.03463
  431        287     0.03905
  432        289     0.03901
  433        288     0.04054
  434        245     0.03506
  435        264     0.03061
  436        277     0.03577
  437        257     0.03999
  438        246     0.03183
  439        246     0.03939
  440        204     0.02902
  441        244     0.03470
  442        251     0.03618
  443        215     0.02982
  444        216     0.03195
  445        210     0.03109
  446        198     0.02546
  447        233     0.03666
  448        195     0.02952
  449        205     0.02678
  450        175     0.03989
  451        184     0.02891
  452        202     0.03504
  453        177     0.03247
  454        182     0.03306
  455        166     0.02792
  456        187     0.03515
  457        160     0.02791
  458        164     0.02219
  459        175     0.03243
  460        158     0.02592
  461        154     0.02437
  462        159     0.03368
  463        163     0.02395
  464        152     0.02385
  465        137     0.02309
  466        138     0.02248
  467        144     0.02671
  468        154     0.02117
  469        143     0.02641
  470        136     0.01946
  471        111     0.02335
  472        123     0.01966
  473        140     0.02805
  474        128     0.02127
  475        122     0.03021
  476        115     0.02462
  477        107     0.02415
  478        131     0.02671
  479        136     0.02711
  480        116     0.02092
  481        118     0.02595
  482         92     0.01980
  483        120     0.02184
  484        114     0.02506
  485        103     0.02418
  486         91     0.02217
  487        117     0.02240
  488         92     0.01860
  489        101     0.02552
  490        106     0.02297
  491         98     0.01858
  492        117     0.01869
  493        100     0.02656
  494         97     0.02292
  495         84     0.01834
  496         88     0.01511
  497        115     0.02208
  498         83     0.04591
  499         95     0.02907
  500         74     0.02720
  501         82     0.02857
  502         81     0.02298
  503         66     0.01535
  504         80     0.02477
  505         79     0.02649
  506         75     0.01972
  507         80     0.02021
  508         81     0.02273
  509         79     0.02155
  510         77     0.02136
  511        100     0.02634
  512         75     0.01882
  513         79     0.03068
  514         70     0.02253
  515         72     0.02854
  516         73     0.02300
  517         70     0.02050
  518         68     0.01735
  519         63     0.01636
  520         65     0.02312
  521         66     0.03122
  522         75     0.02118
  523         57     0.02134
  524         66     0.01909
  525         82     0.02422
  526         50     0.01620
  527         63     0.01693
  528         48     0.01540
  529         48     0.02005
  530         60     0.01736
  531         54     0.01947
  532         57     0.01725
  533         59     0.01723
  534         44     0.01985
  535         63     0.02673
  536         53     0.01472
  537         69     0.02134
  538         62     0.02077
  539         58     0.01690
  540         59     0.03530
  541         55     0.02053
  542         46     0.02314
  543         42     0.01709
  544         54     0.01573
  545         54     0.01831
  546         51     0.02322
  547         43     0.01376
  548         44     0.01384
  549         45     0.01792
  550         54     0.02188
  551         47     0.01849
  552         38     0.01412
  553         48     0.01823
  554         32     0.01757
  555         42     0.01326
  556         35     0.01721
  557         43     0.01724
  558         41     0.01371
  559         42     0.01674
  560         37     0.02660
  561         46     0.01938
  562         44     0.01390
  563         51     0.02028
  564         46     0.01889
  565         34     0.01297
  566         36     0.01556
  567         53     0.02312
  568         41     0.01152
  569         39     0.01673
  570         34     0.01133
  571         31     0.01430
  572         44     0.01349
  573         36     0.01803
  574         32     0.01077
  575         34     0.01841
  576         36     0.01043
  577         34     0.01231
  578         34     0.01690
  579         36     0.02092
  580         47     0.01599
  581         32     0.01892
  582         33     0.01493
  583         31     0.01779
  584         36     0.01483
  585         30     0.01954
  586         29     0.02013
  587         23     0.01223
  588         27     0.02001
  589         32     0.01979
  590         32     0.01239
  591         25     0.00965
  592         25     0.01000
  593         27     0.01259
  594         28     0.01337
  595         29     0.01941
  596         23     0.01806
  597         34     0.01159
  598         28     0.01021
  599         16     0.00866
  600         25     0.01724
  601         26     0.01984
  602         25     0.00933
  603         27     0.01533
  604         21     0.01570
  605         25     0.01067
  606         28     0.01691
  607         20     0.00898
  608         22     0.00950
  609         28     0.01778
  610         26     0.02004
  611         16     0.01074
  612         20     0.00876
  613         30     0.01842
  614         24     0.01260
  615         29     0.01581
  616         20     0.01246
  617         33     0.01516
  618         22     0.01371
  619         26     0.01186
  620         29     0.01624
  621         24     0.01116
  622         16     0.01380
  623         27     0.01104
  624         15     0.01002
  625         22     0.01547
  626         27     0.01358
  627         17     0.01192
  628         25     0.01798
  629         18     0.01143
  630         18     0.00906
  631         13     0.01672
  632         19     0.01037
  633         14     0.00827
  634         17     0.01195
  635         13     0.01632
  636         14     0.01287
  637         14     0.01435
  638         17     0.01230
  639         12     0.00707
  640          9     0.01145
  641         17     0.01354
  642         19     0.00891
  643         13     0.01196
  644         14     0.00845
  645         13     0.00831
  646          9     0.00922
  647         12     0.01308
  648         16     0.01297
  649         10     0.00985
  650         15     0.00844
  651         16     0.01113
  652         20     0.01391
  653          8     0.00729
  654         15     0.01077
  655         16     0.01355
  656          9     0.00716
  657         11     0.00821
  658         13     0.01039
  659         15     0.00954
  660         16     0.00817
  661          7     0.00689
  662         10     0.01507
  663          8     0.00708
  664         13     0.00850
  665         14     0.00862
  666         12     0.01277
  667          9     0.01001
  668         13     0.00860
  669         15     0.01440
  670         11     0.00758
  671          5     0.00668
  672          9     0.00720
  673         11     0.00768
  674          9     0.00702
  675         16     0.01182
  676          5     0.01205
  677         11     0.00745
  678          7     0.01119
  679          6     0.00652
  680          8     0.00649
  681          6     0.00880
  682          5     0.00694
  683          8     0.00901
  684         10     0.00708
  685          6     0.00963
  686         14     0.01089
  687          7     0.00689
  688          7     0.00685
  689          5     0.00648
  690          4     0.00772
  691         10     0.01214
  692          8     0.01062
  693          8     0.00683
  694          7     0.00675
  695          6     0.00669
  696          7     0.01064
  697          4     0.00659
  698         10     0.01096
  699          8     0.00728
  700          9     0.00924
  701          5     0.00658
  702         12     0.00711
  703          3     0.00582
  704          8     0.01211
  705          4     0.00922
  706          9     0.01006
  707          5     0.00691
  708          5     0.00633
  709          3     0.00634
  710          3     0.00633
  711          3     0.00614
  712          2     0.00602
  713          4     0.00621
  714          9     0.00692
  715          3     0.00610
  716          9     0.00736
  717          6     0.00698
  718          6     0.01122
  719          4     0.00649
  720          3     0.00640
  721          9     0.01101
  722          2     0.00577
  723          2     0.00585
  724          7     0.00722
  725          5     0.00662
  726          5     0.01370
  727          6     0.00698
  728          7     0.00716
  729          5     0.00652
  730          8     0.00674
  731          5     0.00667
  732          1     0.00733
  733          3     0.01205
  734          2     0.00614
  735          5     0.00666
  736          4     0.01639
  737          5     0.00665
  738          4     0.00602
  739          3     0.00585
  740          5     0.00641
  741          3     0.00879
  742          3     0.00543
  743          2     0.00572
  744          2     0.00582
  745          4     0.00603
  746          5     0.00624
  747          3     0.00607
  748          4     0.00615
  749          3     0.00561
  750          5     0.00923
  751          8     0.00626
  752          2     0.00597
  753          4     0.00591
  754          6     0.00999
  756          4     0.01424
  757          6     0.01170
  758          6     0.00636
  759          3     0.00613
  760          3     0.01048
  761          3     0.00583
  762          1     0.00552
  763          2     0.00541
  764          9     0.00819
  765          2     0.00603
  766          1     0.00535
  768          3     0.00568
  769          1     0.00543
  770          2     0.00577
  771          3     0.00607
  772          3     0.00600
  773          1     0.00585
  774          1     0.00576
  775          2     0.00940
  776          2     0.00605
  777          1     0.00548
  778          1     0.00610
  779          3     0.00584
  780          1     0.00852
  781          3     0.00853
  782          2     0.00591
  783          1     0.00535
  784          5     0.01371
  785          4     0.00582
  786          1     0.00517
  787          1     0.00518
  788          1     0.00492
  789          4     0.00609
  790          2     0.00586
  791          1     0.00563
  792          2     0.00568
  793          4     0.00609
  795          1     0.00573
  796          3     0.01167
  797          2     0.00563
  798          2     0.00555
  799          1     0.00558
  800          1     0.00568
  801          1     0.00615
  803          1     0.00557
  804          2     0.00569
  805          2     0.00561
  806          2     0.00552
  807          3     0.01087
  809          4     0.01200
  810          3     0.00571
  812          2     0.01160
  815          1     0.00536
  816          3     0.00546
  817          1     0.00546
  819          1     0.00555
  820          1     0.00885
  821          4     0.00603
  822          4     0.00572
  823          2     0.00545
  824          5     0.00965
  825          2     0.00554
  826          1     0.00533
  827          2     0.00584
  828          4     0.00585
  830          1     0.00568
  831          4     0.01007
  832          1     0.00584
  833          3     0.00579
  834          2     0.00711
  835          1     0.00594
  836          3     0.00577
  837          1     0.00583
  840          3     0.01623
  841          3     0.00539
  842          1     0.00529
  844          2     0.00553
  845          1     0.00552
  847          2     0.00536
  849          4     0.00590
  852          2     0.01090
  853          2     0.00970
  855          1     0.00522
  856          2     0.00532
  857          2     0.00534
  858          1     0.00542
  859          1     0.00530
  860          1     0.00558
  861          3     0.00558
  862          2     0.00565
  863          1     0.00548
  865          2     0.00569
  866          1     0.00590
  869          1     0.00571
  870          3     0.00696
  872          1     0.00515
  874          2     0.00585
  875          1     0.00572
  876          2     0.00562
  877          2     0.00570
  879          2     0.00597
  881          2     0.00617
  884          1     0.00580
  885          1     0.00581
  887          1     0.00622
  888          1     0.01073
  889          3     0.00715
  890          2     0.00592
  891          1     0.00602
  892          1     0.00563
  894          2     0.00596
  899          1     0.00591
  900          1     0.00584
  901          1     0.01107
  913          1     0.00571
  914          1     0.00546
  915          1     0.00505
  916          2     0.00521
  919          1     0.00521
  921          1     0.00537
  924          2     0.00887
  926          1     0.00566
  927          1     0.00567
  933          1     0.00596
  935          1     0.00552
  938          1     0.00565
  939          1     0.00541
  942          1     0.00573
  953          1     0.00605
  956          2     0.01562
  966          1     0.00531
  967          1     0.00678
  972          1     0.00546
  973          2     0.00522
  983          1     0.00847
  991          2     0.00575
  997          1     0.00537
 1000          2     0.00542
 1002          1     0.00572
 1010          1     0.00523
 1015          1     0.00541
 1025          1     0.00554
 1027          1     0.00536
 1029          1     0.00537
 1030          1     0.00577
 1034          1     0.00554
 1040          1     0.00570
 1049          1     0.00560
 1052          1     0.00576
 1053          1     0.00567
 1058          1     0.00573
 1064          1     0.00581
 1073          1     0.00587
 1083          1     0.00566
 1084          1     0.00564
 1086          1     0.00577
 1093          1     0.00652
 1108          1     0.00585
 1163          1     0.00586
took 787 iterations
Trial Time:          0.12166
    0          1     0.03309
  174          1     0.84139
  175          6     0.11135
  176          4     0.06897
  177          7     0.19615
  178          4     0.05697
  179         10     0.63356
  180         21     0.47978
  181         25     5.48254
  182        107     0.61947
  183        145     1.11164
  184        165     3.02395
  185        255     1.88384
  186        312     2.69703
  187        461     1.68670
  188        535     1.79921
  189        658     2.19300
  190        749     1.95948
  191        884     1.98772
  192        950     1.94002
  193       1145     1.95876
  194       1200     1.66624
  195       1243     1.71264
  196       1338     1.56303
  197       1379     1.50117
  198       1447     1.44092
  199       1482     1.29966
  200       1506     1.25988
  201       1578     1.20554
  202       1551     1.13069
  203       1615     1.14558
  204       1617     1.11651
  205       1686     1.07576
  206       1695     1.03778
  207       1660     0.90837
  208       1731     0.92514
  209       1624     0.82132
  210       1655     0.83428
  211       1696     0.78556
  212       1690     0.71773
  213       1675     0.73791
  214       1689     0.72322
  215       1719     0.73492
  216       1789     0.73580
  217       1675     0.63576
  218       1717     0.64310
  219       1713     0.63064
  220       1714     0.63900
  221       1690     0.58474
  222       1801     0.63275
  223       1728     0.59255
  224       1691     0.59047
  225       1723     0.56755
  226       1756     0.59330
  227       1669     0.53034
  228       1676     0.52324
  229       1693     0.49770
  230       1671     0.47657
  231       1607     0.44405
  232       1712     0.48528
  233       1628     0.46527
  234       1611     0.42989
  235       1667     0.46865
  236       1720     0.45109
  237       1656     0.42510
  238       1666     0.42406
  239       1589     0.42368
  240       1603     0.37838
  241       1647     0.40206
  242       1575     0.36445
  243       1614     0.36917
  244       1679     0.36952
  245       1590     0.34092
  246       1596     0.34457
  247       1649     0.38104
  248       1643     0.33653
  249       1638     0.33489
  250       1664     0.33725
  251       1579     0.33382
  252       1614     0.34225
  253       1569     0.29534
  254       1648     0.32423
  255       1529     0.30159
  256       1653     0.29839
  257       1539     0.29010
  258       1543     0.29010
  259       1564     0.28792
  260       1508     0.28009
  261       1480     0.28405
  262       1559     0.28166
  263       1489     0.26112
  264       1492     0.28711
  265       1451     0.24545
  266       1468     0.27355
  267       1472     0.25135
  268       1416     0.25137
  269       1553     0.27350
  270       1522     0.23643
  271       1419     0.23255
  272       1449     0.25073
  273       1513     0.22521
  274       1458     0.22551
  275       1372     0.21800
  276       1381     0.22182
  277       1476     0.22691
  278       1429     0.21618
  279       1431     0.21163
  280       1427     0.22680
  281       1406     0.20652
  282       1330     0.19800
  283       1431     0.20999
  284       1365     0.19768
  285       1383     0.19409
  286       1379     0.20183
  287       1348     0.19809
  288       1299     0.17900
  289       1463     0.19190
  290       1320     0.16617
  291       1293     0.19088
  292       1344     0.17563
  293       1342     0.18701
  294       1359     0.19033
  295       1313     0.17356
  296       1328     0.19074
  297       1365     0.18962
  298       1269     0.15082
  299       1329     0.17892
  300       1285     0.16033
  301       1291     0.15812
  302       1267     0.15469
  303       1260     0.15164
  304       1294     0.16720
  305       1252     0.16015
  306       1209     0.14897
  307       1253     0.14682
  308       1191     0.14955
  309       1281     0.16249
  310       1243     0.15149
  311       1232     0.15529
  312       1266     0.14843
  313       1214     0.14094
  314       1277     0.16427
  315       1195     0.14594
  316       1236     0.13172
  317       1170     0.14174
  318       1218     0.15176
  319       1163     0.14000
  320       1145     0.12832
  321       1193     0.14678
  322       1137     0.13451
  323       1147     0.15464
  324       1127     0.11883
  325       1155     0.12049
  326       1130     0.12346
  327       1154     0.13736
  328       1170     0.12685
  329       1138     0.13286
  330       1115     0.11977
  331       1149     0.13674
  332       1096     0.11608
  333       1046     0.11367
  334       1209     0.13691
  335       1151     0.12962
  336       1134     0.11700
  337       1085     0.12466
  338       1105     0.13812
  339       1120     0.12855
  340       1133     0.11924
  341       1073     0.11724
  342       1058     0.10840
  343       1101     0.10897
  344       1059     0.11437
  345       1124     0.11413
  346       1121     0.10387
  347       1121     0.12326
  348       1102     0.11290
  349       1112     0.13026
  350       1056     0.11031
  351       1039     0.11243
  352       1073     0.11718
  353       1051     0.10209
  354       1046     0.11341
  355       1049     0.10773
  356       1040     0.09726
  357       1006     0.11058
  358       1047     0.10333
  359        981     0.10198
  360       1039     0.10140
  361       1068     0.11337
  362       1006     0.09096
  363       1052     0.09681
  364        977     0.08553
  365       1045     0.11223
  366        999     0.09985
  367        962     0.08283
  368        942     0.09011
  369       1009     0.09809
  370        988     0.10339
  371       1016     0.09555
  372       1019     0.08931
  373        995     0.08940
  374       1016     0.09463
  375        975     0.08767
  376        899     0.08103
  377        976     0.10019
  378        957     0.09686
  379        922     0.07935
  380        961     0.09252
  381        986     0.08809
  382        936     0.08229
  383        936     0.08203
  384        962     0.09404
  385        998     0.09926
  386        919     0.07946
  387        936     0.07975
  388        940     0.08454
  389        927     0.07655
  390        942     0.09135
  391        934     0.07967
  392        887     0.08641
  393        906     0.08194
  394        886     0.09011
  395        910     0.08696
  396        921     0.08391
  397        932     0.08339
  398        926     0.08930
  399        939     0.08461
  400        870     0.07476
  401        909     0.07601
  402        891     0.07813
  403        935     0.08143
  404        910     0.08352
  405        904     0.07995
  406        894     0.07652
  407        908     0.08609
  408        830     0.06872
  409        898     0.09350
  410        881     0.08613
  411        860     0.07924
  412        836     0.06933
  413        883     0.07450
  414        879     0.07952
  415        897     0.08304
  416        829     0.07077
  417        811     0.07058
  418        919     0.08189
  419        913     0.07021
  420        829     0.06873
  421        894     0.07787
  422        849     0.08185
  423        848     0.05894
  424        895     0.07438
  425        819     0.06459
  426        842     0.06575
  427        832     0.07093
  428        841     0.06358
  429        815     0.06735
  430        861     0.06439
  431        816     0.06544
  432        791     0.06413
  433        815     0.06398
  434        748     0.06041
  435        829     0.07497
  436        785     0.06125
  437        719     0.06949
  438        772     0.07109
  439        728     0.06638
  440        691     0.06496
  441        664     0.06208
  442        584     0.05767
  443        596     0.05872
  444        545     0.05233
  445        532     0.04871
  446        542     0.04770
  447        513     0.06194
  448        490     0.04531
  449        456     0.05070
  450        455     0.04618
  451        436     0.04885
  452        440     0.05075
  453        382     0.04420
  454        387     0.04487
  455        391     0.04897
  456        391     0.04683
  457        363     0.04112
  458        352     0.04786
  459        350     0.04781
  460        319     0.04479
  461        329     0.04779
  462        291     0.03598
  463        316     0.04435
  464        316     0.03685
  465        274     0.03524
  466        303     0.04297
  467        273     0.03110
  468        290     0.04188
  469        286     0.04439
  470        264     0.03944
  471        274     0.03254
  472        248     0.03652
  473        250     0.03152
  474        213     0.03128
  475        215     0.02761
  476        242     0.03753
  477        236     0.02874
  478        218     0.02704
  479        243     0.03124
  480        229     0.03630
  481        206     0.02811
  482        185     0.02919
  483        224     0.04054
  484        219     0.03439
  485        177     0.03015
  486        196     0.02977
  487        185     0.03037
  488        197     0.03137
  489        179     0.03055
  490        185     0.03947
  491        154     0.02427
  492        143     0.03398
  493        167     0.02313
  494        153     0.02479
  495        161     0.03031
  496        182     0.03174
  497        140     0.02676
  498        147     0.02184
  499        143     0.02512
  500        152     0.02575
  501        146     0.02458
  502        155     0.01967
  503        151     0.02608
  504        139     0.02457
  505        143     0.02430
  506        152     0.02640
  507        134     0.03141
  508        112     0.02725
  509        127     0.03019
  510        109     0.01989
  511        104     0.02279
  512        113     0.02179
  513        114     0.02412
  514        129     0.02311
  515        104     0.01934
  516        117     0.02495
  517        130     0.02523
  518        114     0.01944
  519        104     0.02440
  520        108     0.02151
  521         92     0.02164
  522         92     0.01906
  523        109     0.02055
  524         93     0.03247
  525         98     0.02246
  526         87     0.02204
  527        102     0.02148
  528         95     0.01826
  529         92     0.02200
  530         84     0.01888
  531         76     0.01939
  532        111     0.02559
  533         82     0.02022
  534         79     0.02284
  535         78     0.02652
  536         82     0.01948
  537         97     0.01891
  538         84     0.03082
  539         82     0.02400
  540         85     0.02189
  541         90     0.01965
  542         74     0.02185
  543         81     0.01875
  544         89     0.02388
  545         70     0.02248
  546         76     0.02659
  547         81     0.02261
  548         78     0.02130
  549         66     0.01727
  550         75     0.04323
  551         83     0.02673
  552         57     0.02703
  553         71     0.02317
  554         69     0.02413
  555         74     0.01624
  556         81     0.02090
  557         70     0.02478
  558         61     0.01897
  559         51     0.01691
  560         63     0.02087
  561         61     0.02019
  562         55     0.02244
  563         63     0.02171
  564         47     0.01578
  565         51     0.01735
  566         57     0.01860
  567         58     0.01797
  568         56     0.01351
  569         50     0.02311
  570         55     0.02156
  571         52     0.01278
  572         65     0.02355
  573         55     0.01682
  574         58     0.01634
  575         50     0.02231
  576         54     0.02123
  577         55     0.02361
  578         50     0.01707
  579         47     0.02701
  580         42     0.02082
  581         48     0.01261
  582         48     0.01979
  583         58     0.01864
  584         48     0.01789
  585         45     0.02203
  586         35     0.01648
  587         46     0.01710
  588         41     0.01734
  589         35     0.01589
  590         38     0.01790
  591         40     0.02541
  592         45     0.01817
  593         37     0.01718
  594         51     0.01800
  595         49     0.02085
  596         34     0.01227
  597         52     0.01656
  598         45     0.01530
  599         36     0.02282
  600         45     0.01376
  601         38     0.01499
  602         44     0.02329
  603         34     0.01096
  604         41     0.01594
  605         31     0.01801
  606         37     0.01642
  607         48     0.01808
  608         40     0.01426
  609         35     0.01920
  610         33     0.01353
  611         45     0.02337
  612         38     0.02440
  613         33     0.01147
  614         43     0.01661
  615         38     0.01612
  616         36     0.01491
  617         29     0.01736
  618         19     0.01693
  619         28     0.01149
  620         29     0.02103
  621         34     0.01287
  622         18     0.00858
  623         29     0.01537
  624         18     0.00869
  625         22     0.01273
  626         22     0.01313
  627         29     0.01287
  628         25     0.01039
  629         34     0.02192
  630         27     0.01452
  631         40     0.01587
  632         24     0.01231
  633         26     0.00957
  634         25     0.01540
  635         26     0.01513
  636         23     0.01240
  637         33     0.01796
  638         25     0.01778
  639         27     0.01189
  640         19     0.01156
  641         21     0.00971
  642         18     0.01268
  643         22     0.00959
  644         17     0.00918
  645         18     0.00872
  646         24     0.01358
  647         29     0.01885
  648         24     0.01420
  649         24     0.01414
  650         39     0.02185
  651         17     0.00847
  652         30     0.01369
  653         27     0.01247
  654         30     0.01743
  655         25     0.00972
  656         24     0.01770
  657         22     0.00872
  658         21     0.00938
  659         23     0.01430
  660         20     0.01168
  661         24     0.02285
  662         20     0.01342
  663         19     0.00908
  664         21     0.01515
  665         23     0.02035
  666         12     0.01528
  667         20     0.01026
  668          7     0.00684
  669         13     0.01341
  670         15     0.00852
  671         16     0.00831
  672         12     0.01367
  673         13     0.01091
  674         13     0.00884
  675          7     0.00698
  676         13     0.00776
  677         12     0.00779
  678         15     0.01558
  679         11     0.00815
  680         15     0.01568
  681         12     0.00931
  682         13     0.01047
  683         21     0.01694
  684         15     0.01002
  685         13     0.00825
  686         20     0.01118
  687         20     0.01187
  688         15     0.00819
  689         13     0.00738
  690         16     0.01072
  691         11     0.01009
  692          9     0.00696
  693         14     0.00834
  694         12     0.01219
  695          5     0.00673
  696         10     0.00769
  697         14     0.00777
  698          9     0.00698
  699         17     0.01018
  700          6     0.00676
  701         11     0.01039
  702          7     0.00986
  703         11     0.01196
  704         10     0.00864
  705          7     0.00703
  706          8     0.00704
  707          8     0.00695
  708          8     0.01191
  709          5     0.00662
  710         14     0.00799
  711          5     0.00984
  712         16     0.00826
  713          7     0.00897
  714          9     0.00842
  715          7     0.00605
  716          6     0.00629
  717         13     0.01171
  718          7     0.00609
  719         11     0.00687
  720          5     0.00858
  721         10     0.01216
  722          7     0.01069
  723         13     0.00658
  724          4     0.00637
  725          7     0.01447
  726          8     0.00810
  727         13     0.01111
  728          8     0.01488
  729          8     0.00713
  730          8     0.00705
  731          6     0.00659
  732          3     0.00606
  733          8     0.00697
  734          7     0.00777
  735          4     0.00627
  736          3     0.00570
  737          6     0.00619
  738          4     0.00917
  739         12     0.00718
  740          6     0.00787
  741          3     0.01073
  742          8     0.00691
  743          6     0.00649
  744          3     0.00857
  745          4     0.00612
  746          6     0.00831
  747          6     0.00623
  748          6     0.00872
  749          5     0.00654
  750          4     0.00897
  751          6     0.00660
  752          3     0.00625
  753          6     0.00903
  754          4     0.00726
  755          2     0.01201
  756          6     0.00692
  757         10     0.00729
  758          2     0.00586
  759          5     0.00638
  760          5     0.00615
  761          5     0.01261
  762          7     0.00688
  763          3     0.00612
  764          5     0.00874
  765          1     0.00661
  766          7     0.00669
  767          4     0.00661
  768          3     0.00628
  769          3     0.00628
  770          5     0.00783
  771          4     0.00673
  772          1     0.00613
  773          5     0.00674
  774          5     0.00929
  775          4     0.00652
  776          4     0.01093
  777          3     0.00628
  778          2     0.00644
  779          4     0.01147
  780          4     0.01351
  781          3     0.00651
  782          2     0.00622
  783          6     0.01059
  784          7     0.00676
  785          4     0.01134
  786          5     0.00624
  787          4     0.01021
  788          3     0.00567
  789          7     0.00923
  790          1     0.00531
  791          1     0.00525
  792          1     0.00551
  793          1     0.00539
  794          3     0.01004
  795          5     0.00629
  796          4     0.00827
  797          5     0.00607
  798          7     0.00838
  799          2     0.00536
  800          4     0.00576
  801          4     0.00538
  802          3     0.00528
  803          2     0.00522
  805          1     0.00679
  806          1     0.00573
  807          1     0.00553
  808          2     0.00541
  810          1     0.00857
  812          2     0.00525
  813          5     0.01299
  814          5     0.00586
  815          6     0.00606
  816          1     0.00545
  817          2     0.00544
  818          1     0.00515
  819          1     0.00566
  821          5     0.00854
  822          1     0.00533
  823          3     0.00573
  824          3     0.00578
  825          3     0.00552
  826          2     0.00575
  827          1     0.00547
  829          1     0.00530
  830          1     0.00534
  832          2     0.00534
  833          2     0.01419
  834          1     0.00563
  835          1     0.00568
  836          2     0.00524
  837          1     0.00540
  838          3     0.01165
  839          1     0.00592
  840          4     0.00626
  841          2     0.01140
  842          2     0.00554
  843          2     0.00575
  844          1     0.00573
  845          3     0.00577
  847          2     0.00565
  850          2     0.00691
  851          2     0.00992
  852          4     0.00648
  853          2     0.00557
  854          1     0.00863
  855          1     0.00583
  856          1     0.00550
  857          3     0.00577
  858          6     0.00638
  859          2     0.00569
  860          2     0.00964
  861          4     0.00618
  862          1     0.00578
  863          1     0.00580
  864          1     0.00557
  865          1     0.00512
  868          2     0.00522
  869          1     0.00581
  870          5     0.00753
  871          4     0.00622
  872          1     0.00555
  873          1     0.00573
  875          2     0.01638
  876          1     0.00595
  877          2     0.00558
  878          1     0.00549
  879          1     0.00529
  880          2     0.00871
  881          3     0.01077
  882          2     0.00553
  883          1     0.00534
  884          3     0.00559
  885          2     0.00568
  886          1     0.00551
  890          1     0.00556
  892          3     0.00601
  893          2     0.00626
  896          2     0.00600
  897          1     0.00593
  898          2     0.00586
  901          2     0.00588
  902          1     0.00567
  903          1     0.00553
  904          2     0.00568
  905          1     0.00570
  906          2     0.00929
  907          1     0.00598
  908          2     0.00601
  909          2     0.00578
  910          1     0.00560
  912          1     0.00537
  914          2     0.00569
  915          1     0.00568
  916          1     0.00527
  917          1     0.00529
  919          1     0.00549
  920          1     0.00507
  922          2     0.00517
  923          1     0.00570
  925          1     0.00574
  926          1     0.00828
  928          2     0.00588
  929          1     0.00584
  930          1     0.01120
  932          1     0.00948
  934          1     0.00543
  935          1     0.00585
  944          1     0.00559
  945          1     0.00550
  947          2     0.00553
  951          1     0.00534
  954          1     0.00544
  960          1     0.00568
  961          1     0.00526
  962          1     0.00526
  966          1     0.00507
  968          3     0.00742
  974          1     0.00513
  976          1     0.00544
  982          2     0.00555
  990          1     0.01056
  991          1     0.00988
 1002          1     0.00881
 1003          2     0.00555
 1007          1     0.00560
 1012          1     0.00875
 1017          1     0.00589
 1020          1     0.00529
 1026          1     0.00512
 1029          2     0.00528
 1034          1     0.00530
 1037          1     0.00571
 1039          1     0.00538
 1044          1     0.00514
 1054          1     0.00545
 1062          1     0.00542
 1063          1     0.00546
 1064          1     0.00526
 1065          1     0.00539
 1074          1     0.00546
 1084          1     0.00558
 1087          2     0.00487
 1089          1     0.00461
 1093          1     0.00578
 1108          1     0.00590
 1112          1     0.00580
 1115          1     0.00561
 1119          1     0.00589
 1122          1     0.00579
 1152          1     0.00578
 1197          1     0.00509
took 779 iterations
Trial Time:          0.12077
    0          1     0.04865
   29          1     0.00643
   53          1     0.00577
   68          1     0.00614
   69          1     0.00599
  128          1     0.15847
  132          1     0.01245
  133          1     0.06317
  135          1     0.10311
  137          1     0.03480
  139          2     0.27870
  140          7     0.21223
  141          1     0.13893
  142          5     0.28196
  143          6     0.43351
  144         15     1.64900
  145         34     1.37124
  146         66     1.43246
  147         91     3.97742
  148        165     3.68961
  149        260     1.86216
  150        299     1.90801
  151        463     2.07795
  152        539     1.55062
  153        706     2.15317
  154        818     1.90336
  155        895     2.12239
  156       1041     1.82315
  157       1075     1.81126
  158       1161     1.64017
  159       1262     1.50055
  160       1374     1.60652
  161       1417     1.48154
  162       1458     1.39075
  163       1510     1.36940
  164       1500     1.31935
  165       1577     1.31031
  166       1679     1.18142
  167       1659     1.17857
  168       1638     1.01692
  169       1550     0.93835
  170       1643     0.97358
  171       1618     0.92002
  172       1654     0.89167
  173       1729     0.88082
  174       1682     0.80326
  175       1699     0.74500
  176       1685     0.77228
  177       1711     0.71937
  178       1668     0.72904
  179       1667     0.65255
  180       1618     0.69609
  181       1729     0.66322
  182       1680     0.61704
  183       1752     0.66194
  184       1624     0.58326
  185       1744     0.65433
  186       1742     0.59728
  187       1770     0.62426
  188       1661     0.55807
  189       1725     0.55447
  190       1627     0.53156
  191       1623     0.47123
  192       1732     0.54461
  193       1789     0.55565
  194       1672     0.50676
  195       1691     0.49137
  196       1722     0.47347
  197       1610     0.44250
  198       1711     0.46740
  199       1651     0.42001
  200       1655     0.43478
  201       1628     0.42854
  202       1672     0.42365
  203       1639     0.38872
  204       1655     0.38111
  205       1536     0.35711
  206       1615     0.37524
  207       1578     0.36279
  208       1562     0.33304
  209       1580     0.33349
  210       1595     0.35087
  211       1670     0.34814
  212       1606     0.33991
  213       1586     0.33945
  214       1613     0.33455
  215       1588     0.30728
  216       1624     0.32640
  217       1633     0.32111
  218       1514     0.32808
  219       1597     0.29786
  220       1622     0.31169
  221       1647     0.30617
  222       1585     0.28896
  223       1617     0.31036
  224       1472     0.28525
  225       1539     0.28753
  226       1523     0.28196
  227       1496     0.25912
  228       1496     0.25203
  229       1450     0.27811
  230       1493     0.25170
  231       1461     0.25174
  232       1444     0.24085
  233       1460     0.24410
  234       1482     0.27217
  235       1532     0.24445
  236       1426     0.23414
  237       1444     0.23468
  238       1419     0.23051
  239       1456     0.22473
  240       1405     0.21141
  241       1438     0.23680
  242       1394     0.21352
  243       1425     0.22022
  244       1467     0.21484
  245       1375     0.20612
  246       1368     0.19457
  247       1420     0.21789
  248       1362     0.19072
  249       1362     0.19856
  250       1350     0.20127
  251       1418     0.21035
  252       1365     0.20305
  253       1301     0.18369
  254       1342     0.19403
  255       1393     0.17803
  256       1366     0.18487
  257       1298     0.18030
  258       1354     0.18124
  259       1313     0.17384
  260       1329     0.19322
  261       1283     0.17252
  262       1291     0.18053
  263       1317     0.17069
  264       1214     0.16871
  265       1318     0.16020
  266       1257     0.15860
  267       1223     0.15655
  268       1276     0.16677
  269       1255     0.16489
  270       1179     0.14615
  271       1239     0.14933
  272       1266     0.15905
  273       1274     0.17306
  274       1227     0.13888
  275       1233     0.15630
  276       1262     0.14967
  277       1234     0.14072
  278       1223     0.16219
  279       1155     0.14274
  280       1229     0.14384
  281       1215     0.14538
  282       1155     0.14332
  283       1172     0.13714
  284       1181     0.15092
  285       1182     0.13509
  286       1183     0.13560
  287       1131     0.12376
  288       1153     0.15331
  289       1160     0.13708
  290       1145     0.13675
  291       1172     0.12334
  292       1160     0.14460
  293       1202     0.12648
  294       1121     0.12812
  295       1134     0.12730
  296       1099     0.12973
  297       1152     0.12051
  298       1145     0.11631
  299       1101     0.12731
  300       1082     0.11250
  301       1084     0.13070
  302       1096     0.13277
  303       1147     0.14193
  304       1109     0.10706
  305       1126     0.12754
  306       1130     0.10628
  307       1117     0.12668
  308       1060     0.11404
  309       1062     0.10580
  310       1106     0.11249
  311       1104     0.11353
  312       1106     0.11603
  313       1082     0.09656
  314       1071     0.10841
  315       1099     0.12722
  316       1081     0.11787
  317        997     0.10228
  318       1003     0.09465
  319       1047     0.10173
  320       1063     0.10962
  321        993     0.10364
  322       1085     0.11225
  323       1011     0.10642
  324       1045     0.09934
  325       1037     0.10333
  326       1023     0.10622
  327        982     0.10033
  328       1030     0.10784
  329        973     0.09429
  330        966     0.09642
  331       1044     0.10806
  332       1106     0.10339
  333       1016     0.10581
  334        998     0.08192
  335       1021     0.09452
  336       1006     0.09404
  337        949     0.08100
  338        928     0.08235
  339        960     0.09533
  340        947     0.08771
  341        949     0.09173
  342       1010     0.09324
  343        941     0.09661
  344        991     0.10211
  345        923     0.08313
  346        934     0.08057
  347        956     0.10536
  348        958     0.09261
  349        882     0.09026
  350        923     0.08596
  351        933     0.07927
  352        943     0.08340
  353        940     0.08525
  354        953     0.07727
  355        969     0.08276
  356        906     0.07429
  357        937     0.09339
  358        897     0.07662
  359        909     0.07990
  360        894     0.08095
  361        877     0.07902
  362        934     0.09301
  363        895     0.07721
  364        895     0.08009
  365        874     0.07297
  366        856     0.07753
  367        924     0.08147
  368        901     0.08324
  369        921     0.07627
  370        903     0.07730
  371        858     0.07555
  372        861     0.07928
  373        844     0.08001
  374        857     0.07926
  375        869     0.07640
  376        920     0.07172
  377        861     0.08073
  378        898     0.07710
  379        887     0.07426
  380        871     0.06988
  381        886     0.07276
  382        907     0.07333
  383        852     0.06825
  384        799     0.06531
  385        875     0.07061
  386        889     0.07785
  387        875     0.07293
  388        847     0.06496
  389        872     0.07139
  390        847     0.07322
  391        867     0.07686
  392        819     0.06057
  393        840     0.06304
  394        824     0.07290
  395        797     0.06265
  396        830     0.07566
  397        824     0.06665
  398        792     0.07044
  399        813     0.07530
  400        773     0.06827
  401        814     0.06973
  402        756     0.05640
  403        673     0.05679
  404        670     0.06253
  405        648     0.07111
  406        640     0.07157
  407        602     0.05970
  408        557     0.04584
  409        547     0.05750
  410        507     0.05361
  411        515     0.05079
  412        472     0.05234
  413        443     0.04836
  414        453     0.04714
  415        461     0.05384
  416        452     0.05228
  417        447     0.04868
  418        427     0.04233
  419        400     0.05188
  420        383     0.04199
  421        348     0.04582
  422        343     0.03910
  423        305     0.03595
  424        355     0.03944
  425        314     0.03838
  426        333     0.04335
  427        316     0.04641
  428        290     0.03116
  429        288     0.04104
  430        287     0.04740
  431        287     0.03478
  432        287     0.03815
  433        281     0.03684
  434        293     0.04681
  435        246     0.03720
  436        226     0.03020
  437        251     0.03976
  438        242     0.03297
  439        242     0.03104
  440        229     0.03562
  441        205     0.02585
  442        217     0.03106
  443        232     0.03664
  444        200     0.03164
  445        201     0.02881
  446        217     0.03322
  447        226     0.03367
  448        194     0.03455
  449        197     0.03519
  450        193     0.03322
  451        194     0.03650
  452        180     0.03519
  453        158     0.02104
  454        185     0.02910
  455        188     0.03813
  456        157     0.02530
  457        195     0.03346
  458        157     0.03248
  459        132     0.02899
  460        157     0.02511
  461        165     0.02328
  462        139     0.01847
  463        168     0.02598
  464        160     0.02442
  465        129     0.02191
  466        136     0.02431
  467        145     0.02439
  468        153     0.02471
  469        127     0.01989
  470        139     0.03203
  471        123     0.02470
  472        132     0.02105
  473        128     0.02244
  474        135     0.03230
  475        117     0.02960
  476        106     0.02065
  477        122     0.02474
  478        104     0.02264
  479        123     0.02072
  480        127     0.02459
  481        129     0.02600
[...]
  387       1499     0.28465
  388       1596     0.31773
  389       1496     0.25646
  390       1486     0.26326
  391       1561     0.28143
  392       1523     0.28069
  393       1498     0.27078
  394       1499     0.25424
  395       1499     0.26549
  396       1459     0.25888
  397       1470     0.24512
  398       1420     0.23083
  399       1454     0.23840
  400       1453     0.23975
  401       1501     0.22327
  402       1495     0.23862
  403       1524     0.24618
  404       1433     0.22596
  405       1369     0.20352
  406       1434     0.21623
  407       1459     0.22096
  408       1428     0.22062
  409       1361     0.19382
  410       1460     0.22635
  411       1422     0.21007
  412       1335     0.20727
  413       1374     0.20927
  414       1360     0.18505
  415       1382     0.20183
  416       1327     0.18349
  417       1380     0.19434
  418       1337     0.17592
  419       1359     0.19168
  420       1328     0.18501
  421       1386     0.18223
  422       1323     0.16828
  423       1287     0.17173
  424       1305     0.18136
  425       1281     0.17545
  426       1339     0.16511
  427       1303     0.16669
  428       1285     0.17320
  429       1329     0.16184
  430       1306     0.17206
  431       1267     0.16194
  432       1255     0.16905
  433       1240     0.14592
  434       1271     0.15607
  435       1262     0.14772
  436       1311     0.15886
  437       1293     0.15818
  438       1213     0.14008
  439       1241     0.15385
  440       1267     0.14999
  441       1220     0.15701
  442       1219     0.14652
  443       1179     0.12568
  444       1174     0.14060
  445       1190     0.14734
  446       1138     0.13972
  447       1184     0.13483
  448       1153     0.14898
  449       1215     0.12866
  450       1145     0.14265
  451       1237     0.14499
  452       1163     0.12801
  453       1156     0.16097
  454       1141     0.12418
  455       1156     0.15359
  456       1158     0.12428
  457       1145     0.12612
  458       1152     0.12967
  459       1124     0.12053
  460       1150     0.12907
  461       1117     0.13487
  462       1071     0.10970
  463       1123     0.12388
  464       1067     0.10847
  465       1070     0.11349
  466       1104     0.13009
  467       1100     0.12518
  468       1074     0.10738
  469       1175     0.12800
  470       1127     0.12744
  471       1107     0.09912
  472       1119     0.10535
  473       1058     0.10709
  474       1027     0.10323
  475       1092     0.10842
  476       1118     0.10674
  477       1056     0.12072
  478       1113     0.11887
  479       1062     0.11255
  480       1051     0.10525
  481       1039     0.11038
  482       1049     0.10326
  483       1065     0.11404
  484       1013     0.09145
  485       1041     0.11313
  486       1002     0.09484
  487       1104     0.11666
  488       1035     0.10251
  489       1068     0.10706
  490       1084     0.10528
  491       1004     0.10232
  492       1004     0.09767
  493        991     0.09996
  494       1004     0.09298
  495       1027     0.11725
  496        961     0.09133
  497       1076     0.10422
  498        967     0.08987
  499        977     0.09390
  500       1029     0.09093
  501       1023     0.08419
  502        947     0.08359
  503        991     0.08464
  504        975     0.09033
  505        965     0.08804
  506        988     0.09248
  507        949     0.09024
  508        976     0.08725
  509        925     0.08239
  510        954     0.09208
  511        959     0.08963
  512        916     0.07954
  513        914     0.08234
  514        990     0.08625
  515       1016     0.09927
  516        927     0.07608
  517        956     0.08244
  518        943     0.10685
  519        892     0.07498
  520        950     0.08247
  521        887     0.08087
  522        879     0.07296
  523        897     0.07897
  524        940     0.09100
  525        884     0.07664
  526        876     0.08955
  527        910     0.08300
  528        879     0.07493
  529        912     0.07805
  530        911     0.08057
  531        886     0.08349
  532        880     0.08414
  533        902     0.07819
  534        932     0.08201
  535        914     0.07665
  536        884     0.09151
  537        820     0.07619
  538        889     0.07813
  539        889     0.07328
  540        872     0.07617
  541        843     0.07279
  542        870     0.07816
  543        863     0.07035
  544        897     0.08313
  545        877     0.07357
  546        821     0.06213
  547        875     0.06122
  548        855     0.06808
  549        865     0.06640
  550        872     0.06786
  551        866     0.07999
  552        884     0.07547
  553        865     0.07067
  554        823     0.07787
  555        827     0.07480
  556        909     0.07152
  557        823     0.06474
  558        838     0.07817
  559        852     0.07532
  560        839     0.07581
  561        817     0.06025
  562        801     0.06648
  563        809     0.06568
  564        766     0.06704
  565        747     0.06037
  566        793     0.07937
  567        794     0.05953
  568        781     0.06374
  569        687     0.05952
  570        629     0.06059
  571        606     0.05306
  572        593     0.06469
  573        582     0.06203
  574        551     0.05362
  575        482     0.04559
  576        491     0.04660
  577        482     0.04594
  578        463     0.04802
  579        455     0.05750
  580        455     0.04882
  581        445     0.04993
  582        406     0.04952
  583        408     0.04143
  584        393     0.03740
  585        387     0.05001
  586        326     0.04593
  587        378     0.04284
  588        319     0.04233
  589        327     0.04535
  590        308     0.03209
  591        312     0.04111
  592        300     0.04244
  593        354     0.04600
  594        302     0.04254
  595        282     0.03658
  596        271     0.03569
  597        265     0.03177
  598        290     0.04593
  599        281     0.04037
  600        266     0.02757
  601        254     0.04289
  602        255     0.02752
  603        246     0.03309
  604        222     0.02867
  605        229     0.04058
  606        235     0.03319
  607        230     0.03864
  608        227     0.03890
  609        222     0.02527
  610        204     0.02776
  611        174     0.03341
  612        207     0.02814
  613        196     0.03873
  614        208     0.03667
  615        195     0.02796
  616        194     0.03615
  617        184     0.03396
  618        174     0.03638
  619        167     0.03759
  620        174     0.03227
  621        177     0.03602
  622        160     0.02758
  623        183     0.03736
  624        162     0.03014
  625        137     0.02663
  626        141     0.02157
  627        152     0.02535
  628        155     0.02032
  629        146     0.02343
  630        135     0.01992
  631        144     0.02342
  632        149     0.02946
  633        131     0.02100
  634        135     0.02722
  635        131     0.01756
  636        138     0.02445
  637        131     0.02540
  638        124     0.02465
  639        124     0.03149
  640        104     0.02316
  641        130     0.02705
  642        112     0.01806
  643        108     0.02170
  644        132     0.02364
  645        118     0.02648
  646        115     0.02463
  647        123     0.02238
  648        108     0.02497
  649        122     0.01887
  650        108     0.02183
  651         99     0.01977
  652        106     0.02139
  653         95     0.02892
  654         83     0.02219
  655         90     0.01958
  656         94     0.02935
  657         98     0.02136
  658         77     0.01470
  659        101     0.01547
  660         91     0.02326
  661         73     0.02368
  662        107     0.01846
  663         74     0.02616
  664         96     0.02910
  665         78     0.01963
  666         88     0.02694
  667         84     0.02024
  668         91     0.02284
  669         86     0.02020
  670         70     0.02315
  671         89     0.02441
  672         89     0.02451
  673         80     0.02362
  674         92     0.02450
  675         75     0.01670
  676         57     0.03046
  677         86     0.02046
  678         58     0.01607
  679         71     0.02190
  680         72     0.02643
  681         76     0.02073
  682         81     0.02588
  683         69     0.01741
  684         73     0.03031
  685         65     0.02170
  686         56     0.02124
  687         56     0.01781
  688         68     0.02415
  689         64     0.01786
  690         71     0.01680
  691         59     0.02356
  692         50     0.02542
  693         45     0.01448
  694         53     0.01324
  695         54     0.02325
  696         68     0.01684
  697         69     0.02362
  698         65     0.01792
  699         53     0.02149
  700         51     0.01332
  701         51     0.01865
  702         60     0.01739
  703         54     0.01959
  704         48     0.02077
  705         45     0.02582
  706         44     0.01697
  707         48     0.01612
  708         54     0.01688
  709         42     0.02192
  710         67     0.02595
  711         56     0.02794
  712         31     0.01944
  713         41     0.01652
  714         41     0.01406
  715         42     0.01761
  716         59     0.02593
  717         42     0.02106
  718         42     0.02163
  719         30     0.01759
  720         52     0.01547
  721         45     0.01512
  722         28     0.01086
  723         52     0.01699
  724         39     0.01280
  725         51     0.01861
  726         53     0.01926
  727         33     0.01815
  728         33     0.01237
  729         32     0.01312
  730         42     0.01192
  731         41     0.01844
  732         48     0.02195
  733         48     0.01967
  734         37     0.01930
  735         33     0.01007
  736         51     0.02608
  737         31     0.01547
  738         27     0.01604
  739         53     0.01708
  740         38     0.01589
  741         37     0.04642
  742         43     0.02362
  743         32     0.01608
  744         28     0.01071
  745         31     0.01757
  746         26     0.01515
  747         33     0.01877
  748         27     0.01915
  749         38     0.02176
  750         30     0.01287
  751         23     0.01122
  752         25     0.01666
  753         19     0.00882
  754         27     0.00966
  755         37     0.02141
  756         23     0.00965
  757         28     0.01641
  758         32     0.01028
  759         29     0.01426
  760         20     0.01505
  761         31     0.00971
  762         19     0.00984
  763         29     0.01407
  764         23     0.01381
  765         29     0.01867
  766         17     0.01313
  767         23     0.01338
  768         23     0.01484
  769         15     0.01393
  770         32     0.01438
  771         19     0.01080
  772         27     0.01411
  773         27     0.01015
  774         22     0.01449
  775         24     0.01668
  776         32     0.01445
  777         26     0.01560
  778         28     0.01407
  779         33     0.01510
  780         27     0.01774
  781         25     0.00916
  782         26     0.01102
  783         19     0.01137
  784         25     0.01330
  785         24     0.01700
  786         13     0.00851
  787         24     0.01007
  788         15     0.00899
  789         24     0.02072
  790         22     0.01327
  791         20     0.00902
  792         25     0.01575
  793         16     0.01424
  794         15     0.01077
  795         14     0.01470
  796         16     0.01369
  797         13     0.00792
  798         18     0.01856
  799         16     0.00982
  800         19     0.01141
  801         13     0.01166
  802          9     0.00714
  803         10     0.00946
  804         17     0.01013
  805         21     0.00865
  806         13     0.01041
  807         13     0.00933
  808          5     0.00934
  809         11     0.00708
  810         11     0.01813
  811         13     0.01859
  812         20     0.01091
  813         15     0.00889
  814         20     0.00991
  815         18     0.00831
  816         12     0.00963
  817         11     0.00705
  818         15     0.01138
  819         12     0.01618
  820         14     0.00773
  821         12     0.00750
  822          7     0.00953
  823         15     0.01139
  824         13     0.00766
  825          9     0.00736
  826         10     0.00727
  827         10     0.00732
  828          8     0.00676
  829         11     0.00770
  830         17     0.00983
  831         13     0.00797
  832          7     0.00641
  833         13     0.00926
  834         12     0.00901
  835          7     0.00670
  836         10     0.00767
  837          9     0.01438
  838         17     0.01100
  839          8     0.01156
  840          9     0.00737
  841          3     0.00595
  842          9     0.00662
  843          5     0.00604
  844          5     0.00614
  845         15     0.00784
  846          4     0.00599
  847          8     0.00628
  848          7     0.01101
  849          9     0.00727
  850         12     0.01134
  851          8     0.00805
  852          7     0.00662
  853          9     0.01003
  854          2     0.00609
  855          7     0.00640
  856          5     0.00921
  857         16     0.01195
  858          6     0.00900
  859         10     0.00928
  860          6     0.00982
  861          6     0.01056
  862          7     0.00684
  863          6     0.00638
  864          4     0.00570
  865          4     0.00760
  866          9     0.01222
  867          5     0.00972
  868          5     0.00615
  869          9     0.00657
  870          7     0.00660
  871          4     0.00608
  872          6     0.00624
  873          6     0.01345
  874          5     0.00584
  875          2     0.00518
  876          6     0.01015
  877          5     0.00583
  878         10     0.00712
  879          6     0.00596
  880          5     0.00626
  881          2     0.00555
  882          5     0.00831
  883          3     0.00588
  884          6     0.01172
  885          4     0.00621
  886          4     0.00618
  887          4     0.00655
  888          7     0.01290
  889          7     0.00704
  890          8     0.00742
  891          2     0.00822
  892          5     0.00653
  893          1     0.00564
  894          4     0.00577
  895          5     0.00737
  896          4     0.00711
  897          7     0.00633
  898          4     0.00593
  899          7     0.00598
  900          3     0.00573
  901          2     0.00550
  902          6     0.01499
  903          4     0.00687
  904          2     0.00600
  905          1     0.00521
  906          3     0.00519
  908          5     0.00604
  909          3     0.00562
  910          5     0.00863
  911          3     0.00600
  912          6     0.00638
  914          5     0.00554
  915          6     0.00615
  916          6     0.00771
  917          4     0.00608
  918          2     0.00552
  919          6     0.01257
  920          2     0.00564
  921          6     0.01050
  922          2     0.00530
  923          2     0.00573
  924          8     0.01001
  925          2     0.00525
  926          3     0.00578
  927          5     0.00552
  928          3     0.00522
  929          5     0.00694
  930          2     0.00513
  931          3     0.00522
  933          2     0.00509
  935          2     0.00515
  937          1     0.00525
  938          2     0.00497
  940          2     0.00538
  941          3     0.00533
  942          6     0.00966
  943          2     0.00506
  944          3     0.00500
  945          2     0.00487
  946          3     0.00475
  947          6     0.01414
  948          2     0.00592
  950          2     0.00715
  951          1     0.00549
  953          1     0.00589
  954          1     0.00572
  955          2     0.00623
  956          2     0.00567
  957          2     0.00562
  959          2     0.00557
  960          1     0.00552
  962          1     0.00517
  963          6     0.01149
  964          1     0.00552
  965          1     0.00530
  966          2     0.00548
  967          1     0.00551
  968          2     0.00554
  970          3     0.00526
  971          3     0.00552
  972          2     0.01277
  973          3     0.00715
  974          1     0.00577
  975          1     0.01172
  976          1     0.00569
  979          4     0.00876
  980          2     0.00552
  982          5     0.00628
  984          1     0.00542
  985          3     0.00886
  986          4     0.00594
  987          2     0.00566
  988          1     0.00527
  989          2     0.00494
  991          4     0.00566
  993          4     0.00577
  994          2     0.00997
  995          4     0.00684
  998          2     0.01497
  999          3     0.00599
 1000          3     0.00564
 1001          2     0.00542
 1002          2     0.00548
 1003          2     0.00568
 1004          1     0.00573
 1007          1     0.00575
 1009          2     0.00521
 1010          3     0.00579
 1011          4     0.00640
 1012          1     0.00571
 1013          1     0.00932
 1015          2     0.01256
 1016          1     0.00589
 1017          1     0.00563
 1019          1     0.00566
 1020          3     0.00519
 1022          2     0.00544
 1023          3     0.00549
 1026          1     0.00565
 1027          2     0.00554
 1028          2     0.00565
 1030          1     0.00531
 1031          2     0.00666
 1032          4     0.00546
 1034          2     0.00532
 1035          1     0.00581
 1036          1     0.00568
 1038          1     0.00518
 1040          2     0.00502
 1042          2     0.00543
 1044          1     0.00561
 1045          1     0.00540
 1046          1     0.00527
 1047          1     0.00479
 1048          1     0.00545
 1051          1     0.00571
 1054          3     0.00967
 1055          1     0.00498
 1056          1     0.00664
 1057          1     0.00574
 1059          1     0.00554
 1061          1     0.00567
 1064          2     0.01126
 1066          1     0.00622
 1074          1     0.00551
 1076          1     0.00567
 1078          2     0.00563
 1079          1     0.00573
 1081          1     0.00605
 1087          1     0.00581
 1088          2     0.00524
 1089          1     0.00580
 1090          2     0.00964
 1101          1     0.00546
 1103          1     0.00587
 1104          1     0.00576
 1106          1     0.00576
 1114          1     0.01047
 1115          1     0.01083
 1116          1     0.00613
 1125          1     0.00863
 1127          1     0.00556
 1132          1     0.00529
 1133          1     0.00544
 1139          1     0.00570
 1146          1     0.00874
 1149          1     0.00596
 1154          1     0.00560
 1160          1     0.00554
 1163          2     0.00550
 1164          1     0.00588
 1173          1     0.00563
 1178          1     0.00572
 1185          1     0.00560
 1188          2     0.00569
 1196          1     0.00592
 1197          1     0.00551
 1199          1     0.00525
 1207          1     0.00499
 1210          1     0.00566
 1214          1     0.00535
 1221          1     0.00574
 1227          1     0.00589
 1231          1     0.00613
 1242          1     0.00594
 1246          1     0.00532
 1249          1     0.00515
 1256          1     0.00602
 1274          1     0.00593
 1322          1     0.00544
took 781 iterations
Trial Time:          0.12013
Average Time:        0.12095
Exiting @ tick 4396481149000 because exiting with last active thread context
