
---------- Begin Simulation Statistics ----------
final_tick                               1393401305500                       # Number of ticks from beginning of simulation (restored from checkpoints and never reset)
host_inst_rate                                  61347                       # Simulator instruction rate (inst/s)
host_mem_usage                                 701556                       # Number of bytes of host memory used
host_op_rate                                    61548                       # Simulator op (including micro ops) rate (op/s)
host_seconds                                 18026.30                       # Real time elapsed on the host
host_tick_rate                               77298222                       # Simulator tick rate (ticks/s)
sim_freq                                 1000000000000                       # Frequency of simulated ticks
sim_insts                                  1105864884                       # Number of instructions simulated
sim_ops                                    1109490250                       # Number of ops (including micro ops) simulated
sim_seconds                                  1.393401                       # Number of seconds simulated
sim_ticks                                1393401305500                       # Number of ticks simulated
system.cpu0.branchPred.BTBCorrect                   0                       # Number of correct BTB predictions (this stat may not work properly.
system.cpu0.branchPred.BTBHitPct            87.478541                       # BTB Hit Percentage
system.cpu0.branchPred.BTBHits              139148527                       # Number of BTB hits
system.cpu0.branchPred.BTBLookups           159065899                       # Number of BTB lookups
system.cpu0.branchPred.RASInCorrect                 0                       # Number of incorrect RAS predictions.
system.cpu0.branchPred.condIncorrect         10933098                       # Number of conditional branches incorrect
system.cpu0.branchPred.condPredicted        219618247                       # Number of conditional branches predicted
system.cpu0.branchPred.indirectHits          18657397                       # Number of indirect target hits.
system.cpu0.branchPred.indirectLookups       18775879                       # Number of indirect predictor lookups.
system.cpu0.branchPred.indirectMisses          118482                       # Number of indirect misses.
system.cpu0.branchPred.lookups              279752875                       # Number of BP lookups
system.cpu0.branchPred.usedRAS                      0                       # Number of times the RAS was used to get a target.
system.cpu0.branchPredindirectMispredicted      1859234                       # Number of mispredicted indirect branches.
system.cpu0.commit.amos                       1811477                       # Number of atomic instructions committed
system.cpu0.commit.branchMispredicts          7571444                       # The number of times a branch was mispredicted
system.cpu0.commit.branches                 260691655                       # Number of branches committed
system.cpu0.commit.bw_lim_events             26702900                       # number cycles where commit BW limit reached
system.cpu0.commit.commitNonSpecStalls        5441394                       # The number of times commit has been forced to stall to communicate backwards
system.cpu0.commit.commitSquashedInsts       51204130                       # The number of squashed insts skipped by commit
system.cpu0.commit.committedInsts          1050786286                       # Number of instructions committed
system.cpu0.commit.committedOps            1052600279                       # Number of ops (including micro ops) committed
system.cpu0.commit.committed_per_cycle::samples   1791579758                       # Number of insts commited each cycle
system.cpu0.commit.committed_per_cycle::mean     0.587526                       # Number of insts commited each cycle
system.cpu0.commit.committed_per_cycle::stdev     1.347107                       # Number of insts commited each cycle
system.cpu0.commit.committed_per_cycle::underflows            0      0.00%      0.00% # Number of insts commited each cycle
system.cpu0.commit.committed_per_cycle::0   1283538516     71.64%     71.64% # Number of insts commited each cycle
system.cpu0.commit.committed_per_cycle::1    303812507     16.96%     88.60% # Number of insts commited each cycle
system.cpu0.commit.committed_per_cycle::2     69295518      3.87%     92.47% # Number of insts commited each cycle
system.cpu0.commit.committed_per_cycle::3     67913347      3.79%     96.26% # Number of insts commited each cycle
system.cpu0.commit.committed_per_cycle::4     23197123      1.29%     97.55% # Number of insts commited each cycle
system.cpu0.commit.committed_per_cycle::5      7848835      0.44%     97.99% # Number of insts commited each cycle
system.cpu0.commit.committed_per_cycle::6      4096256      0.23%     98.22% # Number of insts commited each cycle
system.cpu0.commit.committed_per_cycle::7      5174756      0.29%     98.51% # Number of insts commited each cycle
system.cpu0.commit.committed_per_cycle::8     26702900      1.49%    100.00% # Number of insts commited each cycle
system.cpu0.commit.committed_per_cycle::overflows            0      0.00%    100.00% # Number of insts commited each cycle
system.cpu0.commit.committed_per_cycle::min_value            0                       # Number of insts commited each cycle
system.cpu0.commit.committed_per_cycle::max_value            8                       # Number of insts commited each cycle
system.cpu0.commit.committed_per_cycle::total   1791579758                       # Number of insts commited each cycle
system.cpu0.commit.fp_insts                        50                       # Number of committed floating point instructions.
system.cpu0.commit.function_calls            20857685                       # Number of function calls committed.
system.cpu0.commit.int_insts               1015975853                       # Number of committed integer instructions.
system.cpu0.commit.loads                    326223873                       # Number of loads committed
system.cpu0.commit.membars                    3625352                       # Number of memory barriers committed
system.cpu0.commit.op_class_0::No_OpClass      3625358      0.34%      0.34% # Class of committed instruction
system.cpu0.commit.op_class_0::IntAlu       583938244     55.48%     55.82% # Class of committed instruction
system.cpu0.commit.op_class_0::IntMult        8031601      0.76%     56.58% # Class of committed instruction
system.cpu0.commit.op_class_0::IntDiv         1811037      0.17%     56.76% # Class of committed instruction
system.cpu0.commit.op_class_0::FloatAdd             0      0.00%     56.76% # Class of committed instruction
system.cpu0.commit.op_class_0::FloatCmp             4      0.00%     56.76% # Class of committed instruction
system.cpu0.commit.op_class_0::FloatCvt            12      0.00%     56.76% # Class of committed instruction
system.cpu0.commit.op_class_0::FloatMult            0      0.00%     56.76% # Class of committed instruction
system.cpu0.commit.op_class_0::FloatMultAcc            0      0.00%     56.76% # Class of committed instruction
system.cpu0.commit.op_class_0::FloatDiv             2      0.00%     56.76% # Class of committed instruction
system.cpu0.commit.op_class_0::FloatMisc            4      0.00%     56.76% # Class of committed instruction
system.cpu0.commit.op_class_0::FloatSqrt            0      0.00%     56.76% # Class of committed instruction
system.cpu0.commit.op_class_0::SimdAdd              0      0.00%     56.76% # Class of committed instruction
system.cpu0.commit.op_class_0::SimdAddAcc            0      0.00%     56.76% # Class of committed instruction
system.cpu0.commit.op_class_0::SimdAlu              0      0.00%     56.76% # Class of committed instruction
system.cpu0.commit.op_class_0::SimdCmp              0      0.00%     56.76% # Class of committed instruction
system.cpu0.commit.op_class_0::SimdCvt              0      0.00%     56.76% # Class of committed instruction
system.cpu0.commit.op_class_0::SimdMisc             0      0.00%     56.76% # Class of committed instruction
system.cpu0.commit.op_class_0::SimdMult             0      0.00%     56.76% # Class of committed instruction
system.cpu0.commit.op_class_0::SimdMultAcc            0      0.00%     56.76% # Class of committed instruction
system.cpu0.commit.op_class_0::SimdShift            0      0.00%     56.76% # Class of committed instruction
system.cpu0.commit.op_class_0::SimdShiftAcc            0      0.00%     56.76% # Class of committed instruction
system.cpu0.commit.op_class_0::SimdDiv              0      0.00%     56.76% # Class of committed instruction
system.cpu0.commit.op_class_0::SimdSqrt             0      0.00%     56.76% # Class of committed instruction
system.cpu0.commit.op_class_0::SimdFloatAdd            0      0.00%     56.76% # Class of committed instruction
system.cpu0.commit.op_class_0::SimdFloatAlu            0      0.00%     56.76% # Class of committed instruction
system.cpu0.commit.op_class_0::SimdFloatCmp            0      0.00%     56.76% # Class of committed instruction
system.cpu0.commit.op_class_0::SimdFloatCvt            0      0.00%     56.76% # Class of committed instruction
system.cpu0.commit.op_class_0::SimdFloatDiv            0      0.00%     56.76% # Class of committed instruction
system.cpu0.commit.op_class_0::SimdFloatMisc            0      0.00%     56.76% # Class of committed instruction
system.cpu0.commit.op_class_0::SimdFloatMult            0      0.00%     56.76% # Class of committed instruction
system.cpu0.commit.op_class_0::SimdFloatMultAcc            0      0.00%     56.76% # Class of committed instruction
system.cpu0.commit.op_class_0::SimdFloatSqrt            0      0.00%     56.76% # Class of committed instruction
system.cpu0.commit.op_class_0::SimdReduceAdd            0      0.00%     56.76% # Class of committed instruction
system.cpu0.commit.op_class_0::SimdReduceAlu            0      0.00%     56.76% # Class of committed instruction
system.cpu0.commit.op_class_0::SimdReduceCmp            0      0.00%     56.76% # Class of committed instruction
system.cpu0.commit.op_class_0::SimdFloatReduceAdd            0      0.00%     56.76% # Class of committed instruction
system.cpu0.commit.op_class_0::SimdFloatReduceCmp            0      0.00%     56.76% # Class of committed instruction
system.cpu0.commit.op_class_0::SimdAes              0      0.00%     56.76% # Class of committed instruction
system.cpu0.commit.op_class_0::SimdAesMix            0      0.00%     56.76% # Class of committed instruction
system.cpu0.commit.op_class_0::SimdSha1Hash            0      0.00%     56.76% # Class of committed instruction
system.cpu0.commit.op_class_0::SimdSha1Hash2            0      0.00%     56.76% # Class of committed instruction
system.cpu0.commit.op_class_0::SimdSha256Hash            0      0.00%     56.76% # Class of committed instruction
system.cpu0.commit.op_class_0::SimdSha256Hash2            0      0.00%     56.76% # Class of committed instruction
system.cpu0.commit.op_class_0::SimdShaSigma2            0      0.00%     56.76% # Class of committed instruction
system.cpu0.commit.op_class_0::SimdShaSigma3            0      0.00%     56.76% # Class of committed instruction
system.cpu0.commit.op_class_0::SimdPredAlu            0      0.00%     56.76% # Class of committed instruction
system.cpu0.commit.op_class_0::MemRead      328035342     31.16%     87.92% # Class of committed instruction
system.cpu0.commit.op_class_0::MemWrite     127158647     12.08%    100.00% # Class of committed instruction
system.cpu0.commit.op_class_0::FloatMemRead            8      0.00%    100.00% # Class of committed instruction
system.cpu0.commit.op_class_0::FloatMemWrite           20      0.00%    100.00% # Class of committed instruction
system.cpu0.commit.op_class_0::IprAccess            0      0.00%    100.00% # Class of committed instruction
system.cpu0.commit.op_class_0::InstPrefetch            0      0.00%    100.00% # Class of committed instruction
system.cpu0.commit.op_class_0::total       1052600279                       # Class of committed instruction
system.cpu0.commit.refs                     455194017                       # Number of memory references committed
system.cpu0.commit.swp_count                        0                       # Number of s/w prefetches committed
system.cpu0.commit.vec_insts                        0                       # Number of committed Vector instructions.
system.cpu0.committedInsts                 1050786286                       # Number of Instructions Simulated
system.cpu0.committedOps                   1052600279                       # Number of Ops (including micro ops) Simulated
system.cpu0.cpi                              2.647916                       # CPI: Cycles Per Instruction
system.cpu0.cpi_total                        2.647916                       # CPI: Total CPI of All Threads
system.cpu0.decode.BlockedCycles            327943073                       # Number of cycles decode is blocked
system.cpu0.decode.BranchMispred              3369648                       # Number of times decode detected a branch misprediction
system.cpu0.decode.BranchResolved           137804768                       # Number of times decode resolved a branch
system.cpu0.decode.DecodedInsts            1122084276                       # Number of instructions handled by decode
system.cpu0.decode.IdleCycles               700184513                       # Number of cycles decode is idle
system.cpu0.decode.RunCycles                762674896                       # Number of cycles decode is running
system.cpu0.decode.SquashCycles               7578026                       # Number of cycles decode is squashing
system.cpu0.decode.SquashedInsts             12578819                       # Number of squashed instructions handled by decode
system.cpu0.decode.UnblockCycles              4994691                       # Number of cycles decode is unblocking
system.cpu0.dtb.accesses                            0                       # DTB accesses
system.cpu0.dtb.hits                                0                       # DTB hits
system.cpu0.dtb.misses                              0                       # DTB misses
system.cpu0.dtb.read_accesses                       0                       # DTB read accesses
system.cpu0.dtb.read_hits                           0                       # DTB read hits
system.cpu0.dtb.read_misses                         0                       # DTB read misses
system.cpu0.dtb.write_accesses                      0                       # DTB write accesses
system.cpu0.dtb.write_hits                          0                       # DTB write hits
system.cpu0.dtb.write_misses                        0                       # DTB write misses
system.cpu0.fetch.Branches                  279752875                       # Number of branches that fetch encountered
system.cpu0.fetch.CacheLines                185396707                       # Number of cache lines fetched
system.cpu0.fetch.Cycles                   1105653640                       # Number of cycles fetch has run and was not squashing or blocked
system.cpu0.fetch.IcacheSquashes              4310542                       # Number of outstanding Icache misses that were squashed
system.cpu0.fetch.IcacheWaitRetryStallCycles          129                       # Number of stall cycles due to full MSHR
system.cpu0.fetch.Insts                    1142525273                       # Number of instructions fetch has processed
system.cpu0.fetch.MiscStallCycles                  18                       # Number of cycles fetch has spent waiting on interrupts, or bad addresses, or out of MSHRs
system.cpu0.fetch.PendingTrapStallCycles           48                       # Number of stall cycles due to pending traps
system.cpu0.fetch.SquashCycles               21879376                       # Number of cycles fetch has spent squashing
system.cpu0.fetch.branchRate                 0.100544                       # Number of branch fetches per cycle
system.cpu0.fetch.icacheStallCycles         686781676                       # Number of cycles fetch is stalled on an Icache miss
system.cpu0.fetch.predictedBranches         157805924                       # Number of branches that fetch has predicted taken
system.cpu0.fetch.rate                       0.410627                       # Number of inst fetches per cycle
system.cpu0.fetch.rateDist::samples        1803375199                       # Number of instructions fetched each cycle (Total)
system.cpu0.fetch.rateDist::mean             0.634555                       # Number of instructions fetched each cycle (Total)
system.cpu0.fetch.rateDist::stdev            0.914912                       # Number of instructions fetched each cycle (Total)
system.cpu0.fetch.rateDist::underflows              0      0.00%      0.00% # Number of instructions fetched each cycle (Total)
system.cpu0.fetch.rateDist::0              1008381156     55.92%     55.92% # Number of instructions fetched each cycle (Total)
system.cpu0.fetch.rateDist::1               583547216     32.36%     88.27% # Number of instructions fetched each cycle (Total)
system.cpu0.fetch.rateDist::2               108743375      6.03%     94.30% # Number of instructions fetched each cycle (Total)
system.cpu0.fetch.rateDist::3                78856082      4.37%     98.68% # Number of instructions fetched each cycle (Total)
system.cpu0.fetch.rateDist::4                18610144      1.03%     99.71% # Number of instructions fetched each cycle (Total)
system.cpu0.fetch.rateDist::5                 2972682      0.16%     99.87% # Number of instructions fetched each cycle (Total)
system.cpu0.fetch.rateDist::6                  340656      0.02%     99.89% # Number of instructions fetched each cycle (Total)
system.cpu0.fetch.rateDist::7                     580      0.00%     99.89% # Number of instructions fetched each cycle (Total)
system.cpu0.fetch.rateDist::8                 1923308      0.11%    100.00% # Number of instructions fetched each cycle (Total)
system.cpu0.fetch.rateDist::overflows               0      0.00%    100.00% # Number of instructions fetched each cycle (Total)
system.cpu0.fetch.rateDist::min_value               0                       # Number of instructions fetched each cycle (Total)
system.cpu0.fetch.rateDist::max_value               8                       # Number of instructions fetched each cycle (Total)
system.cpu0.fetch.rateDist::total          1803375199                       # Number of instructions fetched each cycle (Total)
system.cpu0.fp_regfile_reads                       44                       # number of floating regfile reads
system.cpu0.fp_regfile_writes                      23                       # number of floating regfile writes
system.cpu0.idleCycles                      979018189                       # Total number of cycles that the CPU has spent unscheduled due to idling
system.cpu0.iew.branchMispredicts             7720443                       # Number of branch mispredicts detected at execute
system.cpu0.iew.exec_branches               267337829                       # Number of branches executed
system.cpu0.iew.exec_nop                            0                       # number of nop insts executed
system.cpu0.iew.exec_rate                    0.393517                       # Inst execution rate
system.cpu0.iew.exec_refs                   480740405                       # number of memory reference insts executed
system.cpu0.iew.exec_stores                 132613044                       # Number of stores executed
system.cpu0.iew.exec_swp                            0                       # number of swp insts executed
system.cpu0.iew.iewBlockCycles              280457770                       # Number of cycles IEW is blocking
system.cpu0.iew.iewDispLoadInsts            348119602                       # Number of dispatched load instructions
system.cpu0.iew.iewDispNonSpecInsts           1816631                       # Number of dispatched non-speculative instructions
system.cpu0.iew.iewDispSquashedInsts          3647960                       # Number of squashed instructions skipped by dispatch
system.cpu0.iew.iewDispStoreInsts           133614468                       # Number of dispatched store instructions
system.cpu0.iew.iewDispatchedInsts         1103788744                       # Number of instructions dispatched to IQ
system.cpu0.iew.iewExecLoadInsts            348127361                       # Number of load instructions executed
system.cpu0.iew.iewExecSquashedInsts          6561146                       # Number of squashed instructions skipped in execute
system.cpu0.iew.iewExecutedInsts           1094917815                       # Number of executed instructions
system.cpu0.iew.iewIQFullEvents               1681404                       # Number of times the IQ has become full, causing a stall
system.cpu0.iew.iewIdleCycles                       0                       # Number of cycles IEW is idle
system.cpu0.iew.iewLSQFullEvents              1844732                       # Number of times the LSQ has become full, causing a stall
system.cpu0.iew.iewSquashCycles               7578026                       # Number of cycles IEW is squashing
system.cpu0.iew.iewUnblockCycles              5434464                       # Number of cycles IEW is unblocking
system.cpu0.iew.lsq.thread0.blockedLoads            0                       # Number of blocked loads due to partial load-store forwarding
system.cpu0.iew.lsq.thread0.cacheBlocked       104224                       # Number of times an access to memory failed due to the cache being blocked
system.cpu0.iew.lsq.thread0.forwLoads        17097748                       # Number of loads that had data forwarded from stores
system.cpu0.iew.lsq.thread0.ignoredResponses        49293                       # Number of memory responses ignored because the instruction is squashed
system.cpu0.iew.lsq.thread0.invAddrLoads            0                       # Number of loads ignored due to an invalid address
system.cpu0.iew.lsq.thread0.invAddrSwpfs            0                       # Number of software prefetches ignored due to an invalid address
system.cpu0.iew.lsq.thread0.memOrderViolation         6710                       # Number of memory ordering violations
system.cpu0.iew.lsq.thread0.rescheduledLoads      4160251                       # Number of loads that were rescheduled
system.cpu0.iew.lsq.thread0.squashedLoads     21895729                       # Number of loads squashed
system.cpu0.iew.lsq.thread0.squashedStores      4644324                       # Number of stores squashed
system.cpu0.iew.memOrderViolationEvents          6710                       # Number of memory order violations
system.cpu0.iew.predictedNotTakenIncorrect      1188799                       # Number of branches that were predicted not taken incorrectly
system.cpu0.iew.predictedTakenIncorrect       6531644                       # Number of branches that were predicted taken incorrectly
system.cpu0.iew.wb_consumers                496362934                       # num instructions consuming a value
system.cpu0.iew.wb_count                   1085451193                       # cumulative count of insts written-back
system.cpu0.iew.wb_fanout                    0.837540                       # average fanout of values written-back
system.cpu0.iew.wb_producers                415723590                       # num instructions producing a value
system.cpu0.iew.wb_rate                      0.390114                       # insts written-back per cycle
system.cpu0.iew.wb_sent                    1085526633                       # cumulative count of insts sent to commit
system.cpu0.int_regfile_reads              1338887918                       # number of integer regfile reads
system.cpu0.int_regfile_writes              693347006                       # number of integer regfile writes
system.cpu0.ipc                              0.377656                       # IPC: Instructions Per Cycle
system.cpu0.ipc_total                        0.377656                       # IPC: Total IPC of All Threads
system.cpu0.iq.FU_type_0::No_OpClass          3626836      0.33%      0.33% # Type of FU issued
system.cpu0.iq.FU_type_0::IntAlu            604257861     54.86%     55.19% # Type of FU issued
system.cpu0.iq.FU_type_0::IntMult             8140022      0.74%     55.93% # Type of FU issued
system.cpu0.iq.FU_type_0::IntDiv              1811521      0.16%     56.09% # Type of FU issued
system.cpu0.iq.FU_type_0::FloatAdd                  0      0.00%     56.09% # Type of FU issued
system.cpu0.iq.FU_type_0::FloatCmp                  4      0.00%     56.09% # Type of FU issued
system.cpu0.iq.FU_type_0::FloatCvt                 12      0.00%     56.09% # Type of FU issued
system.cpu0.iq.FU_type_0::FloatMult                 0      0.00%     56.09% # Type of FU issued
system.cpu0.iq.FU_type_0::FloatMultAcc              0      0.00%     56.09% # Type of FU issued
system.cpu0.iq.FU_type_0::FloatDiv                  2      0.00%     56.09% # Type of FU issued
system.cpu0.iq.FU_type_0::FloatMisc                 4      0.00%     56.09% # Type of FU issued
system.cpu0.iq.FU_type_0::FloatSqrt                 0      0.00%     56.09% # Type of FU issued
system.cpu0.iq.FU_type_0::SimdAdd                   0      0.00%     56.09% # Type of FU issued
system.cpu0.iq.FU_type_0::SimdAddAcc                0      0.00%     56.09% # Type of FU issued
system.cpu0.iq.FU_type_0::SimdAlu                   0      0.00%     56.09% # Type of FU issued
system.cpu0.iq.FU_type_0::SimdCmp                   0      0.00%     56.09% # Type of FU issued
system.cpu0.iq.FU_type_0::SimdCvt                   0      0.00%     56.09% # Type of FU issued
system.cpu0.iq.FU_type_0::SimdMisc                  0      0.00%     56.09% # Type of FU issued
system.cpu0.iq.FU_type_0::SimdMult                  0      0.00%     56.09% # Type of FU issued
system.cpu0.iq.FU_type_0::SimdMultAcc               0      0.00%     56.09% # Type of FU issued
system.cpu0.iq.FU_type_0::SimdShift                 0      0.00%     56.09% # Type of FU issued
system.cpu0.iq.FU_type_0::SimdShiftAcc              0      0.00%     56.09% # Type of FU issued
system.cpu0.iq.FU_type_0::SimdDiv                   0      0.00%     56.09% # Type of FU issued
system.cpu0.iq.FU_type_0::SimdSqrt                  0      0.00%     56.09% # Type of FU issued
system.cpu0.iq.FU_type_0::SimdFloatAdd              0      0.00%     56.09% # Type of FU issued
system.cpu0.iq.FU_type_0::SimdFloatAlu              0      0.00%     56.09% # Type of FU issued
system.cpu0.iq.FU_type_0::SimdFloatCmp              0      0.00%     56.09% # Type of FU issued
system.cpu0.iq.FU_type_0::SimdFloatCvt              0      0.00%     56.09% # Type of FU issued
system.cpu0.iq.FU_type_0::SimdFloatDiv              0      0.00%     56.09% # Type of FU issued
system.cpu0.iq.FU_type_0::SimdFloatMisc             0      0.00%     56.09% # Type of FU issued
system.cpu0.iq.FU_type_0::SimdFloatMult             0      0.00%     56.09% # Type of FU issued
system.cpu0.iq.FU_type_0::SimdFloatMultAcc            0      0.00%     56.09% # Type of FU issued
system.cpu0.iq.FU_type_0::SimdFloatSqrt             0      0.00%     56.09% # Type of FU issued
system.cpu0.iq.FU_type_0::SimdReduceAdd             0      0.00%     56.09% # Type of FU issued
system.cpu0.iq.FU_type_0::SimdReduceAlu             0      0.00%     56.09% # Type of FU issued
system.cpu0.iq.FU_type_0::SimdReduceCmp             0      0.00%     56.09% # Type of FU issued
system.cpu0.iq.FU_type_0::SimdFloatReduceAdd            0      0.00%     56.09% # Type of FU issued
system.cpu0.iq.FU_type_0::SimdFloatReduceCmp            0      0.00%     56.09% # Type of FU issued
system.cpu0.iq.FU_type_0::SimdAes                   0      0.00%     56.09% # Type of FU issued
system.cpu0.iq.FU_type_0::SimdAesMix                0      0.00%     56.09% # Type of FU issued
system.cpu0.iq.FU_type_0::SimdSha1Hash              0      0.00%     56.09% # Type of FU issued
system.cpu0.iq.FU_type_0::SimdSha1Hash2             0      0.00%     56.09% # Type of FU issued
system.cpu0.iq.FU_type_0::SimdSha256Hash            0      0.00%     56.09% # Type of FU issued
system.cpu0.iq.FU_type_0::SimdSha256Hash2            0      0.00%     56.09% # Type of FU issued
system.cpu0.iq.FU_type_0::SimdShaSigma2             0      0.00%     56.09% # Type of FU issued
system.cpu0.iq.FU_type_0::SimdShaSigma3             0      0.00%     56.09% # Type of FU issued
system.cpu0.iq.FU_type_0::SimdPredAlu               0      0.00%     56.09% # Type of FU issued
system.cpu0.iq.FU_type_0::MemRead           352531947     32.01%     88.10% # Type of FU issued
system.cpu0.iq.FU_type_0::MemWrite          131110723     11.90%    100.00% # Type of FU issued
system.cpu0.iq.FU_type_0::FloatMemRead              9      0.00%    100.00% # Type of FU issued
system.cpu0.iq.FU_type_0::FloatMemWrite            20      0.00%    100.00% # Type of FU issued
system.cpu0.iq.FU_type_0::IprAccess                 0      0.00%    100.00% # Type of FU issued
system.cpu0.iq.FU_type_0::InstPrefetch              0      0.00%    100.00% # Type of FU issued
system.cpu0.iq.FU_type_0::total            1101478961                       # Type of FU issued
system.cpu0.iq.fp_alu_accesses                     55                       # Number of floating point alu accesses
system.cpu0.iq.fp_inst_queue_reads                106                       # Number of floating instruction queue reads
system.cpu0.iq.fp_inst_queue_wakeup_accesses           51                       # Number of floating instruction queue wakeup accesses
system.cpu0.iq.fp_inst_queue_writes                52                       # Number of floating instruction queue writes
system.cpu0.iq.fu_busy_cnt                    2115412                       # FU busy when requested
system.cpu0.iq.fu_busy_rate                  0.001921                       # FU busy rate (busy events/executed inst)
system.cpu0.iq.fu_full::No_OpClass                  0      0.00%      0.00% # attempts to use FU when none available
system.cpu0.iq.fu_full::IntAlu                 358564     16.95%     16.95% # attempts to use FU when none available
system.cpu0.iq.fu_full::IntMult                    10      0.00%     16.95% # attempts to use FU when none available
system.cpu0.iq.fu_full::IntDiv                      0      0.00%     16.95% # attempts to use FU when none available
system.cpu0.iq.fu_full::FloatAdd                    0      0.00%     16.95% # attempts to use FU when none available
system.cpu0.iq.fu_full::FloatCmp                    0      0.00%     16.95% # attempts to use FU when none available
system.cpu0.iq.fu_full::FloatCvt                    0      0.00%     16.95% # attempts to use FU when none available
system.cpu0.iq.fu_full::FloatMult                   0      0.00%     16.95% # attempts to use FU when none available
system.cpu0.iq.fu_full::FloatMultAcc                0      0.00%     16.95% # attempts to use FU when none available
system.cpu0.iq.fu_full::FloatDiv                    0      0.00%     16.95% # attempts to use FU when none available
system.cpu0.iq.fu_full::FloatMisc                   0      0.00%     16.95% # attempts to use FU when none available
system.cpu0.iq.fu_full::FloatSqrt                   0      0.00%     16.95% # attempts to use FU when none available
system.cpu0.iq.fu_full::SimdAdd                     0      0.00%     16.95% # attempts to use FU when none available
system.cpu0.iq.fu_full::SimdAddAcc                  0      0.00%     16.95% # attempts to use FU when none available
system.cpu0.iq.fu_full::SimdAlu                     0      0.00%     16.95% # attempts to use FU when none available
system.cpu0.iq.fu_full::SimdCmp                     0      0.00%     16.95% # attempts to use FU when none available
system.cpu0.iq.fu_full::SimdCvt                     0      0.00%     16.95% # attempts to use FU when none available
system.cpu0.iq.fu_full::SimdMisc                    0      0.00%     16.95% # attempts to use FU when none available
system.cpu0.iq.fu_full::SimdMult                    0      0.00%     16.95% # attempts to use FU when none available
system.cpu0.iq.fu_full::SimdMultAcc                 0      0.00%     16.95% # attempts to use FU when none available
system.cpu0.iq.fu_full::SimdShift                   0      0.00%     16.95% # attempts to use FU when none available
system.cpu0.iq.fu_full::SimdShiftAcc                0      0.00%     16.95% # attempts to use FU when none available
system.cpu0.iq.fu_full::SimdDiv                     0      0.00%     16.95% # attempts to use FU when none available
system.cpu0.iq.fu_full::SimdSqrt                    0      0.00%     16.95% # attempts to use FU when none available
system.cpu0.iq.fu_full::SimdFloatAdd                0      0.00%     16.95% # attempts to use FU when none available
system.cpu0.iq.fu_full::SimdFloatAlu                0      0.00%     16.95% # attempts to use FU when none available
system.cpu0.iq.fu_full::SimdFloatCmp                0      0.00%     16.95% # attempts to use FU when none available
system.cpu0.iq.fu_full::SimdFloatCvt                0      0.00%     16.95% # attempts to use FU when none available
system.cpu0.iq.fu_full::SimdFloatDiv                0      0.00%     16.95% # attempts to use FU when none available
system.cpu0.iq.fu_full::SimdFloatMisc               0      0.00%     16.95% # attempts to use FU when none available
system.cpu0.iq.fu_full::SimdFloatMult               0      0.00%     16.95% # attempts to use FU when none available
system.cpu0.iq.fu_full::SimdFloatMultAcc            0      0.00%     16.95% # attempts to use FU when none available
system.cpu0.iq.fu_full::SimdFloatSqrt               0      0.00%     16.95% # attempts to use FU when none available
system.cpu0.iq.fu_full::SimdReduceAdd               0      0.00%     16.95% # attempts to use FU when none available
system.cpu0.iq.fu_full::SimdReduceAlu               0      0.00%     16.95% # attempts to use FU when none available
system.cpu0.iq.fu_full::SimdReduceCmp               0      0.00%     16.95% # attempts to use FU when none available
system.cpu0.iq.fu_full::SimdFloatReduceAdd            0      0.00%     16.95% # attempts to use FU when none available
system.cpu0.iq.fu_full::SimdFloatReduceCmp            0      0.00%     16.95% # attempts to use FU when none available
system.cpu0.iq.fu_full::SimdAes                     0      0.00%     16.95% # attempts to use FU when none available
system.cpu0.iq.fu_full::SimdAesMix                  0      0.00%     16.95% # attempts to use FU when none available
system.cpu0.iq.fu_full::SimdSha1Hash                0      0.00%     16.95% # attempts to use FU when none available
system.cpu0.iq.fu_full::SimdSha1Hash2               0      0.00%     16.95% # attempts to use FU when none available
system.cpu0.iq.fu_full::SimdSha256Hash              0      0.00%     16.95% # attempts to use FU when none available
system.cpu0.iq.fu_full::SimdSha256Hash2             0      0.00%     16.95% # attempts to use FU when none available
system.cpu0.iq.fu_full::SimdShaSigma2               0      0.00%     16.95% # attempts to use FU when none available
system.cpu0.iq.fu_full::SimdShaSigma3               0      0.00%     16.95% # attempts to use FU when none available
system.cpu0.iq.fu_full::SimdPredAlu                 0      0.00%     16.95% # attempts to use FU when none available
system.cpu0.iq.fu_full::MemRead               1560502     73.77%     90.72% # attempts to use FU when none available
system.cpu0.iq.fu_full::MemWrite               196332      9.28%    100.00% # attempts to use FU when none available
system.cpu0.iq.fu_full::FloatMemRead                0      0.00%    100.00% # attempts to use FU when none available
system.cpu0.iq.fu_full::FloatMemWrite               4      0.00%    100.00% # attempts to use FU when none available
system.cpu0.iq.fu_full::IprAccess                   0      0.00%    100.00% # attempts to use FU when none available
system.cpu0.iq.fu_full::InstPrefetch                0      0.00%    100.00% # attempts to use FU when none available
system.cpu0.iq.int_alu_accesses            1099967482                       # Number of integer alu accesses
system.cpu0.iq.int_inst_queue_reads        4008576310                       # Number of integer instruction queue reads
system.cpu0.iq.int_inst_queue_wakeup_accesses   1085451142                       # Number of integer instruction queue wakeup accesses
system.cpu0.iq.int_inst_queue_writes       1154983037                       # Number of integer instruction queue writes
system.cpu0.iq.iqInstsAdded                1098345658                       # Number of instructions added to the IQ (excludes non-spec)
system.cpu0.iq.iqInstsIssued               1101478961                       # Number of instructions issued
system.cpu0.iq.iqNonSpecInstsAdded            5443086                       # Number of non-speculative instructions added to the IQ
system.cpu0.iq.iqSquashedInstsExamined       51188462                       # Number of squashed instructions iterated over during squash; mainly for profiling
system.cpu0.iq.iqSquashedInstsIssued           127883                       # Number of squashed instructions issued
system.cpu0.iq.iqSquashedNonSpecRemoved          1692                       # Number of squashed non-spec instructions that were removed
system.cpu0.iq.iqSquashedOperandsExamined     18002812                       # Number of squashed operands that are examined and possibly removed from graph
system.cpu0.iq.issued_per_cycle::samples   1803375199                       # Number of insts issued each cycle
system.cpu0.iq.issued_per_cycle::mean        0.610787                       # Number of insts issued each cycle
system.cpu0.iq.issued_per_cycle::stdev       0.845460                       # Number of insts issued each cycle
system.cpu0.iq.issued_per_cycle::underflows            0      0.00%      0.00% # Number of insts issued each cycle
system.cpu0.iq.issued_per_cycle::0         1033765503     57.32%     57.32% # Number of insts issued each cycle
system.cpu0.iq.issued_per_cycle::1          518580890     28.76%     86.08% # Number of insts issued each cycle
system.cpu0.iq.issued_per_cycle::2          182923973     10.14%     96.22% # Number of insts issued each cycle
system.cpu0.iq.issued_per_cycle::3           58227467      3.23%     99.45% # Number of insts issued each cycle
system.cpu0.iq.issued_per_cycle::4            8362947      0.46%     99.92% # Number of insts issued each cycle
system.cpu0.iq.issued_per_cycle::5             584736      0.03%     99.95% # Number of insts issued each cycle
system.cpu0.iq.issued_per_cycle::6             628328      0.03%     99.98% # Number of insts issued each cycle
system.cpu0.iq.issued_per_cycle::7             188552      0.01%     99.99% # Number of insts issued each cycle
system.cpu0.iq.issued_per_cycle::8             112803      0.01%    100.00% # Number of insts issued each cycle
system.cpu0.iq.issued_per_cycle::overflows            0      0.00%    100.00% # Number of insts issued each cycle
system.cpu0.iq.issued_per_cycle::min_value            0                       # Number of insts issued each cycle
system.cpu0.iq.issued_per_cycle::max_value            8                       # Number of insts issued each cycle
system.cpu0.iq.issued_per_cycle::total     1803375199                       # Number of insts issued each cycle
system.cpu0.iq.rate                          0.395875                       # Inst issue rate
system.cpu0.iq.vec_alu_accesses                     0                       # Number of vector alu accesses
system.cpu0.iq.vec_inst_queue_reads                 0                       # Number of vector instruction queue reads
system.cpu0.iq.vec_inst_queue_wakeup_accesses            0                       # Number of vector instruction queue wakeup accesses
system.cpu0.iq.vec_inst_queue_writes                0                       # Number of vector instruction queue writes
system.cpu0.itb.accesses                            0                       # DTB accesses
system.cpu0.itb.hits                                0                       # DTB hits
system.cpu0.itb.misses                              0                       # DTB misses
system.cpu0.itb.read_accesses                       0                       # DTB read accesses
system.cpu0.itb.read_hits                           0                       # DTB read hits
system.cpu0.itb.read_misses                         0                       # DTB read misses
system.cpu0.itb.write_accesses                      0                       # DTB write accesses
system.cpu0.itb.write_hits                          0                       # DTB write hits
system.cpu0.itb.write_misses                        0                       # DTB write misses
system.cpu0.memDep0.conflictingLoads         16156092                       # Number of conflicting loads.
system.cpu0.memDep0.conflictingStores         2346760                       # Number of conflicting stores.
system.cpu0.memDep0.insertedLoads           348119602                       # Number of loads inserted to the mem dependence unit.
system.cpu0.memDep0.insertedStores          133614468                       # Number of stores inserted to the mem dependence unit.
system.cpu0.misc_regfile_reads                   1503                       # number of misc regfile reads
system.cpu0.misc_regfile_writes                    22                       # number of misc regfile writes
system.cpu0.numCycles                      2782393388                       # number of cpu cycles simulated
system.cpu0.numWorkItemsCompleted                   0                       # number of work items this cpu completed
system.cpu0.numWorkItemsStarted                     0                       # number of work items this cpu started
system.cpu0.quiesceCycles                     4409224                       # Total number of cycles that CPU has spent quiesced or waiting for an interrupt
system.cpu0.rename.BlockCycles              299390103                       # Number of cycles rename is blocking
system.cpu0.rename.CommittedMaps            670639766                       # Number of HB maps that are committed
system.cpu0.rename.IQFullEvents              12301168                       # Number of times rename has blocked due to IQ full
system.cpu0.rename.IdleCycles               707613144                       # Number of cycles rename is idle
system.cpu0.rename.LQFullEvents               5055594                       # Number of times rename has blocked due to LQ full
system.cpu0.rename.ROBFullEvents                28770                       # Number of times rename has blocked due to ROB full
system.cpu0.rename.RenameLookups           1367640473                       # Number of register rename lookups that rename has made
system.cpu0.rename.RenamedInsts            1117340757                       # Number of instructions processed by rename
system.cpu0.rename.RenamedOperands          716536499                       # Number of destination operands rename has renamed
system.cpu0.rename.RunCycles                759207440                       # Number of cycles rename is running
system.cpu0.rename.SQFullEvents              11831852                       # Number of times rename has blocked due to SQ full
system.cpu0.rename.SquashCycles               7578026                       # Number of cycles rename is squashing
system.cpu0.rename.UnblockCycles             29456855                       # Number of cycles rename is unblocking
system.cpu0.rename.UndoneMaps                45896729                       # Number of HB maps that are undone due to squashing
system.cpu0.rename.fp_rename_lookups               44                       # Number of floating rename lookups
system.cpu0.rename.int_rename_lookups      1367640429                       # Number of integer rename lookups
system.cpu0.rename.serializeStallCycles        129631                       # count of cycles rename stalled for serializing inst
system.cpu0.rename.serializingInsts              4661                       # count of serializing insts renamed
system.cpu0.rename.skidInsts                 24341406                       # count of insts added to the skid buffer
system.cpu0.rename.tempSerializingInsts          4647                       # count of temporary serializing insts renamed
system.cpu0.rob.rob_reads                  2868662196                       # The number of ROB reads
system.cpu0.rob.rob_writes                 2219419735                       # The number of ROB writes
system.cpu0.timesIdled                       23517627                       # Number of times that the entire CPU went into an idle state and unscheduled itself
system.cpu0.workload.numSyscalls                 1470                       # Number of system calls
system.cpu1.branchPred.BTBCorrect                   0                       # Number of correct BTB predictions (this stat may not work properly.
system.cpu1.branchPred.BTBHitPct            95.071132                       # BTB Hit Percentage
system.cpu1.branchPred.BTBHits                9532790                       # Number of BTB hits
system.cpu1.branchPred.BTBLookups            10027008                       # Number of BTB lookups
system.cpu1.branchPred.RASInCorrect                 0                       # Number of incorrect RAS predictions.
system.cpu1.branchPred.condIncorrect          1915263                       # Number of conditional branches incorrect
system.cpu1.branchPred.condPredicted         18600650                       # Number of conditional branches predicted
system.cpu1.branchPred.indirectHits            322468                       # Number of indirect target hits.
system.cpu1.branchPred.indirectLookups         462584                       # Number of indirect predictor lookups.
system.cpu1.branchPred.indirectMisses          140116                       # Number of indirect misses.
system.cpu1.branchPred.lookups               20274923                       # Number of BP lookups
system.cpu1.branchPred.usedRAS                      0                       # Number of times the RAS was used to get a target.
system.cpu1.branchPredindirectMispredicted         4792                       # Number of mispredicted indirect branches.
system.cpu1.commit.amos                       1811199                       # Number of atomic instructions committed
system.cpu1.commit.branchMispredicts          1121898                       # The number of times a branch was mispredicted
system.cpu1.commit.branches                  12202727                       # Number of branches committed
system.cpu1.commit.bw_lim_events              1095401                       # number cycles where commit BW limit reached
system.cpu1.commit.commitNonSpecStalls        5434258                       # The number of times commit has been forced to stall to communicate backwards
system.cpu1.commit.commitSquashedInsts       20794819                       # The number of squashed insts skipped by commit
system.cpu1.commit.committedInsts            55078598                       # Number of instructions committed
system.cpu1.commit.committedOps              56889971                       # Number of ops (including micro ops) committed
system.cpu1.commit.committed_per_cycle::samples    327686311                       # Number of insts commited each cycle
system.cpu1.commit.committed_per_cycle::mean     0.173611                       # Number of insts commited each cycle
system.cpu1.commit.committed_per_cycle::stdev     0.810194                       # Number of insts commited each cycle
system.cpu1.commit.committed_per_cycle::underflows            0      0.00%      0.00% # Number of insts commited each cycle
system.cpu1.commit.committed_per_cycle::0    303648521     92.66%     92.66% # Number of insts commited each cycle
system.cpu1.commit.committed_per_cycle::1     12002124      3.66%     96.33% # Number of insts commited each cycle
system.cpu1.commit.committed_per_cycle::2      4076561      1.24%     97.57% # Number of insts commited each cycle
system.cpu1.commit.committed_per_cycle::3      3755405      1.15%     98.72% # Number of insts commited each cycle
system.cpu1.commit.committed_per_cycle::4       914162      0.28%     99.00% # Number of insts commited each cycle
system.cpu1.commit.committed_per_cycle::5       328302      0.10%     99.10% # Number of insts commited each cycle
system.cpu1.commit.committed_per_cycle::6      1653701      0.50%     99.60% # Number of insts commited each cycle
system.cpu1.commit.committed_per_cycle::7       212134      0.06%     99.67% # Number of insts commited each cycle
system.cpu1.commit.committed_per_cycle::8      1095401      0.33%    100.00% # Number of insts commited each cycle
system.cpu1.commit.committed_per_cycle::overflows            0      0.00%    100.00% # Number of insts commited each cycle
system.cpu1.commit.committed_per_cycle::min_value            0                       # Number of insts commited each cycle
system.cpu1.commit.committed_per_cycle::max_value            8                       # Number of insts commited each cycle
system.cpu1.commit.committed_per_cycle::total    327686311                       # Number of insts commited each cycle
system.cpu1.commit.fp_insts                        12                       # Number of committed floating point instructions.
system.cpu1.commit.function_calls              502516                       # Number of function calls committed.
system.cpu1.commit.int_insts                 52975779                       # Number of committed integer instructions.
system.cpu1.commit.loads                     16126162                       # Number of loads committed
system.cpu1.commit.membars                    3622516                       # Number of memory barriers committed
system.cpu1.commit.op_class_0::No_OpClass      3622516      6.37%      6.37% # Class of committed instruction
system.cpu1.commit.op_class_0::IntAlu        32012509     56.27%     62.64% # Class of committed instruction
system.cpu1.commit.op_class_0::IntMult             43      0.00%     62.64% # Class of committed instruction
system.cpu1.commit.op_class_0::IntDiv              86      0.00%     62.64% # Class of committed instruction
system.cpu1.commit.op_class_0::FloatAdd             0      0.00%     62.64% # Class of committed instruction
system.cpu1.commit.op_class_0::FloatCmp             0      0.00%     62.64% # Class of committed instruction
system.cpu1.commit.op_class_0::FloatCvt             0      0.00%     62.64% # Class of committed instruction
system.cpu1.commit.op_class_0::FloatMult            0      0.00%     62.64% # Class of committed instruction
system.cpu1.commit.op_class_0::FloatMultAcc            0      0.00%     62.64% # Class of committed instruction
system.cpu1.commit.op_class_0::FloatDiv             0      0.00%     62.64% # Class of committed instruction
system.cpu1.commit.op_class_0::FloatMisc            0      0.00%     62.64% # Class of committed instruction
system.cpu1.commit.op_class_0::FloatSqrt            0      0.00%     62.64% # Class of committed instruction
system.cpu1.commit.op_class_0::SimdAdd              0      0.00%     62.64% # Class of committed instruction
system.cpu1.commit.op_class_0::SimdAddAcc            0      0.00%     62.64% # Class of committed instruction
system.cpu1.commit.op_class_0::SimdAlu              0      0.00%     62.64% # Class of committed instruction
system.cpu1.commit.op_class_0::SimdCmp              0      0.00%     62.64% # Class of committed instruction
system.cpu1.commit.op_class_0::SimdCvt              0      0.00%     62.64% # Class of committed instruction
system.cpu1.commit.op_class_0::SimdMisc             0      0.00%     62.64% # Class of committed instruction
system.cpu1.commit.op_class_0::SimdMult             0      0.00%     62.64% # Class of committed instruction
system.cpu1.commit.op_class_0::SimdMultAcc            0      0.00%     62.64% # Class of committed instruction
system.cpu1.commit.op_class_0::SimdShift            0      0.00%     62.64% # Class of committed instruction
system.cpu1.commit.op_class_0::SimdShiftAcc            0      0.00%     62.64% # Class of committed instruction
system.cpu1.commit.op_class_0::SimdDiv              0      0.00%     62.64% # Class of committed instruction
system.cpu1.commit.op_class_0::SimdSqrt             0      0.00%     62.64% # Class of committed instruction
system.cpu1.commit.op_class_0::SimdFloatAdd            0      0.00%     62.64% # Class of committed instruction
system.cpu1.commit.op_class_0::SimdFloatAlu            0      0.00%     62.64% # Class of committed instruction
system.cpu1.commit.op_class_0::SimdFloatCmp            0      0.00%     62.64% # Class of committed instruction
system.cpu1.commit.op_class_0::SimdFloatCvt            0      0.00%     62.64% # Class of committed instruction
system.cpu1.commit.op_class_0::SimdFloatDiv            0      0.00%     62.64% # Class of committed instruction
system.cpu1.commit.op_class_0::SimdFloatMisc            0      0.00%     62.64% # Class of committed instruction
system.cpu1.commit.op_class_0::SimdFloatMult            0      0.00%     62.64% # Class of committed instruction
system.cpu1.commit.op_class_0::SimdFloatMultAcc            0      0.00%     62.64% # Class of committed instruction
system.cpu1.commit.op_class_0::SimdFloatSqrt            0      0.00%     62.64% # Class of committed instruction
system.cpu1.commit.op_class_0::SimdReduceAdd            0      0.00%     62.64% # Class of committed instruction
system.cpu1.commit.op_class_0::SimdReduceAlu            0      0.00%     62.64% # Class of committed instruction
system.cpu1.commit.op_class_0::SimdReduceCmp            0      0.00%     62.64% # Class of committed instruction
system.cpu1.commit.op_class_0::SimdFloatReduceAdd            0      0.00%     62.64% # Class of committed instruction
system.cpu1.commit.op_class_0::SimdFloatReduceCmp            0      0.00%     62.64% # Class of committed instruction
system.cpu1.commit.op_class_0::SimdAes              0      0.00%     62.64% # Class of committed instruction
system.cpu1.commit.op_class_0::SimdAesMix            0      0.00%     62.64% # Class of committed instruction
system.cpu1.commit.op_class_0::SimdSha1Hash            0      0.00%     62.64% # Class of committed instruction
system.cpu1.commit.op_class_0::SimdSha1Hash2            0      0.00%     62.64% # Class of committed instruction
system.cpu1.commit.op_class_0::SimdSha256Hash            0      0.00%     62.64% # Class of committed instruction
system.cpu1.commit.op_class_0::SimdSha256Hash2            0      0.00%     62.64% # Class of committed instruction
system.cpu1.commit.op_class_0::SimdShaSigma2            0      0.00%     62.64% # Class of committed instruction
system.cpu1.commit.op_class_0::SimdShaSigma3            0      0.00%     62.64% # Class of committed instruction
system.cpu1.commit.op_class_0::SimdPredAlu            0      0.00%     62.64% # Class of committed instruction
system.cpu1.commit.op_class_0::MemRead       17937361     31.53%     94.17% # Class of committed instruction
system.cpu1.commit.op_class_0::MemWrite       3317444      5.83%    100.00% # Class of committed instruction
system.cpu1.commit.op_class_0::FloatMemRead            0      0.00%    100.00% # Class of committed instruction
system.cpu1.commit.op_class_0::FloatMemWrite           12      0.00%    100.00% # Class of committed instruction
system.cpu1.commit.op_class_0::IprAccess            0      0.00%    100.00% # Class of committed instruction
system.cpu1.commit.op_class_0::InstPrefetch            0      0.00%    100.00% # Class of committed instruction
system.cpu1.commit.op_class_0::total         56889971                       # Class of committed instruction
system.cpu1.commit.refs                      21254817                       # Number of memory references committed
system.cpu1.commit.swp_count                        0                       # Number of s/w prefetches committed
system.cpu1.commit.vec_insts                        0                       # Number of committed Vector instructions.
system.cpu1.committedInsts                   55078598                       # Number of Instructions Simulated
system.cpu1.committedOps                     56889971                       # Number of Ops (including micro ops) Simulated
system.cpu1.cpi                              6.021749                       # CPI: Cycles Per Instruction
system.cpu1.cpi_total                        6.021749                       # CPI: Total CPI of All Threads
system.cpu1.decode.BlockedCycles            281714800                       # Number of cycles decode is blocked
system.cpu1.decode.BranchMispred               799661                       # Number of times decode detected a branch misprediction
system.cpu1.decode.BranchResolved             8419472                       # Number of times decode resolved a branch
system.cpu1.decode.DecodedInsts              84738185                       # Number of instructions handled by decode
system.cpu1.decode.IdleCycles                14122491                       # Number of cycles decode is idle
system.cpu1.decode.RunCycles                 29760532                       # Number of cycles decode is running
system.cpu1.decode.SquashCycles               1122369                       # Number of cycles decode is squashing
system.cpu1.decode.SquashedInsts              1164447                       # Number of squashed instructions handled by decode
system.cpu1.decode.UnblockCycles              4361387                       # Number of cycles decode is unblocking
system.cpu1.dtb.accesses                            0                       # DTB accesses
system.cpu1.dtb.hits                                0                       # DTB hits
system.cpu1.dtb.misses                              0                       # DTB misses
system.cpu1.dtb.read_accesses                       0                       # DTB read accesses
system.cpu1.dtb.read_hits                           0                       # DTB read hits
system.cpu1.dtb.read_misses                         0                       # DTB read misses
system.cpu1.dtb.write_accesses                      0                       # DTB write accesses
system.cpu1.dtb.write_hits                          0                       # DTB write hits
system.cpu1.dtb.write_misses                        0                       # DTB write misses
system.cpu1.fetch.Branches                   20274923                       # Number of branches that fetch encountered
system.cpu1.fetch.CacheLines                 14437238                       # Number of cache lines fetched
system.cpu1.fetch.Cycles                    313145195                       # Number of cycles fetch has run and was not squashing or blocked
system.cpu1.fetch.IcacheSquashes               126848                       # Number of outstanding Icache misses that were squashed
system.cpu1.fetch.Insts                      98035821                       # Number of instructions fetch has processed
system.cpu1.fetch.MiscStallCycles                   1                       # Number of cycles fetch has spent waiting on interrupts, or bad addresses, or out of MSHRs
system.cpu1.fetch.SquashCycles                3831468                       # Number of cycles fetch has spent squashing
system.cpu1.fetch.branchRate                 0.061130                       # Number of branch fetches per cycle
system.cpu1.fetch.icacheStallCycles          16020649                       # Number of cycles fetch is stalled on an Icache miss
system.cpu1.fetch.predictedBranches           9855258                       # Number of branches that fetch has predicted taken
system.cpu1.fetch.rate                       0.295583                       # Number of inst fetches per cycle
system.cpu1.fetch.rateDist::samples         331081579                       # Number of instructions fetched each cycle (Total)
system.cpu1.fetch.rateDist::mean             0.307462                       # Number of instructions fetched each cycle (Total)
system.cpu1.fetch.rateDist::stdev            0.793970                       # Number of instructions fetched each cycle (Total)
system.cpu1.fetch.rateDist::underflows              0      0.00%      0.00% # Number of instructions fetched each cycle (Total)
system.cpu1.fetch.rateDist::0               271511637     82.01%     82.01% # Number of instructions fetched each cycle (Total)
system.cpu1.fetch.rateDist::1                34273283     10.35%     92.36% # Number of instructions fetched each cycle (Total)
system.cpu1.fetch.rateDist::2                15025866      4.54%     96.90% # Number of instructions fetched each cycle (Total)
system.cpu1.fetch.rateDist::3                 6021503      1.82%     98.72% # Number of instructions fetched each cycle (Total)
system.cpu1.fetch.rateDist::4                 2716748      0.82%     99.54% # Number of instructions fetched each cycle (Total)
system.cpu1.fetch.rateDist::5                  664074      0.20%     99.74% # Number of instructions fetched each cycle (Total)
system.cpu1.fetch.rateDist::6                  864777      0.26%    100.00% # Number of instructions fetched each cycle (Total)
system.cpu1.fetch.rateDist::7                      14      0.00%    100.00% # Number of instructions fetched each cycle (Total)
system.cpu1.fetch.rateDist::8                    3677      0.00%    100.00% # Number of instructions fetched each cycle (Total)
system.cpu1.fetch.rateDist::overflows               0      0.00%    100.00% # Number of instructions fetched each cycle (Total)
system.cpu1.fetch.rateDist::min_value               0                       # Number of instructions fetched each cycle (Total)
system.cpu1.fetch.rateDist::max_value               8                       # Number of instructions fetched each cycle (Total)
system.cpu1.fetch.rateDist::total           331081579                       # Number of instructions fetched each cycle (Total)
system.cpu1.fp_regfile_reads                       12                       # number of floating regfile reads
system.cpu1.idleCycles                         587914                       # Total number of cycles that the CPU has spent unscheduled due to idling
system.cpu1.iew.branchMispredicts             1168316                       # Number of branch mispredicts detected at execute
system.cpu1.iew.exec_branches                14617350                       # Number of branches executed
system.cpu1.iew.exec_nop                            0                       # number of nop insts executed
system.cpu1.iew.exec_rate                    0.191474                       # Inst execution rate
system.cpu1.iew.exec_refs                    22339407                       # number of memory reference insts executed
system.cpu1.iew.exec_stores                   5217609                       # Number of stores executed
system.cpu1.iew.exec_swp                            0                       # number of swp insts executed
system.cpu1.iew.iewBlockCycles              242949336                       # Number of cycles IEW is blocking
system.cpu1.iew.iewDispLoadInsts             22196268                       # Number of dispatched load instructions
system.cpu1.iew.iewDispNonSpecInsts           2712212                       # Number of dispatched non-speculative instructions
system.cpu1.iew.iewDispSquashedInsts          2227152                       # Number of squashed instructions skipped by dispatch
system.cpu1.iew.iewDispStoreInsts             7104055                       # Number of dispatched store instructions
system.cpu1.iew.iewDispatchedInsts           77676120                       # Number of instructions dispatched to IQ
system.cpu1.iew.iewExecLoadInsts             17121798                       # Number of load instructions executed
system.cpu1.iew.iewExecSquashedInsts           730184                       # Number of squashed instructions skipped in execute
system.cpu1.iew.iewExecutedInsts             63505972                       # Number of executed instructions
system.cpu1.iew.iewIQFullEvents               1726804                       # Number of times the IQ has become full, causing a stall
system.cpu1.iew.iewIdleCycles                       0                       # Number of cycles IEW is idle
system.cpu1.iew.iewLSQFullEvents              1551975                       # Number of times the LSQ has become full, causing a stall
system.cpu1.iew.iewSquashCycles               1122369                       # Number of cycles IEW is squashing
system.cpu1.iew.iewUnblockCycles              4990682                       # Number of cycles IEW is unblocking
system.cpu1.iew.lsq.thread0.blockedLoads            0                       # Number of blocked loads due to partial load-store forwarding
system.cpu1.iew.lsq.thread0.cacheBlocked        19556                       # Number of times an access to memory failed due to the cache being blocked
system.cpu1.iew.lsq.thread0.forwLoads          315554                       # Number of loads that had data forwarded from stores
system.cpu1.iew.lsq.thread0.ignoredResponses        10488                       # Number of memory responses ignored because the instruction is squashed
system.cpu1.iew.lsq.thread0.invAddrLoads            0                       # Number of loads ignored due to an invalid address
system.cpu1.iew.lsq.thread0.invAddrSwpfs            0                       # Number of software prefetches ignored due to an invalid address
system.cpu1.iew.lsq.thread0.memOrderViolation          492                       # Number of memory ordering violations
system.cpu1.iew.lsq.thread0.rescheduledLoads         2967                       # Number of loads that were rescheduled
system.cpu1.iew.lsq.thread0.squashedLoads      6070106                       # Number of loads squashed
system.cpu1.iew.lsq.thread0.squashedStores      1975400                       # Number of stores squashed
system.cpu1.iew.memOrderViolationEvents           492                       # Number of memory order violations
system.cpu1.iew.predictedNotTakenIncorrect       195876                       # Number of branches that were predicted not taken incorrectly
system.cpu1.iew.predictedTakenIncorrect        972440                       # Number of branches that were predicted taken incorrectly
system.cpu1.iew.wb_consumers                 36671394                       # num instructions consuming a value
system.cpu1.iew.wb_count                     63128312                       # cumulative count of insts written-back
system.cpu1.iew.wb_fanout                    0.838178                       # average fanout of values written-back
system.cpu1.iew.wb_producers                 30737164                       # num instructions producing a value
system.cpu1.iew.wb_rate                      0.190335                       # insts written-back per cycle
system.cpu1.iew.wb_sent                      63141915                       # cumulative count of insts sent to commit
system.cpu1.int_regfile_reads                79352586                       # number of integer regfile reads
system.cpu1.int_regfile_writes               41771262                       # number of integer regfile writes
system.cpu1.ipc                              0.166065                       # IPC: Instructions Per Cycle
system.cpu1.ipc_total                        0.166065                       # IPC: Total IPC of All Threads
system.cpu1.iq.FU_type_0::No_OpClass          3622619      5.64%      5.64% # Type of FU issued
system.cpu1.iq.FU_type_0::IntAlu             38168183     59.42%     65.06% # Type of FU issued
system.cpu1.iq.FU_type_0::IntMult                  46      0.00%     65.06% # Type of FU issued
system.cpu1.iq.FU_type_0::IntDiv                   86      0.00%     65.06% # Type of FU issued
system.cpu1.iq.FU_type_0::FloatAdd                  0      0.00%     65.06% # Type of FU issued
system.cpu1.iq.FU_type_0::FloatCmp                  0      0.00%     65.06% # Type of FU issued
system.cpu1.iq.FU_type_0::FloatCvt                  0      0.00%     65.06% # Type of FU issued
system.cpu1.iq.FU_type_0::FloatMult                 0      0.00%     65.06% # Type of FU issued
system.cpu1.iq.FU_type_0::FloatMultAcc              0      0.00%     65.06% # Type of FU issued
system.cpu1.iq.FU_type_0::FloatDiv                  0      0.00%     65.06% # Type of FU issued
system.cpu1.iq.FU_type_0::FloatMisc                 0      0.00%     65.06% # Type of FU issued
system.cpu1.iq.FU_type_0::FloatSqrt                 0      0.00%     65.06% # Type of FU issued
system.cpu1.iq.FU_type_0::SimdAdd                   0      0.00%     65.06% # Type of FU issued
system.cpu1.iq.FU_type_0::SimdAddAcc                0      0.00%     65.06% # Type of FU issued
system.cpu1.iq.FU_type_0::SimdAlu                   0      0.00%     65.06% # Type of FU issued
system.cpu1.iq.FU_type_0::SimdCmp                   0      0.00%     65.06% # Type of FU issued
system.cpu1.iq.FU_type_0::SimdCvt                   0      0.00%     65.06% # Type of FU issued
system.cpu1.iq.FU_type_0::SimdMisc                  0      0.00%     65.06% # Type of FU issued
system.cpu1.iq.FU_type_0::SimdMult                  0      0.00%     65.06% # Type of FU issued
system.cpu1.iq.FU_type_0::SimdMultAcc               0      0.00%     65.06% # Type of FU issued
system.cpu1.iq.FU_type_0::SimdShift                 0      0.00%     65.06% # Type of FU issued
system.cpu1.iq.FU_type_0::SimdShiftAcc              0      0.00%     65.06% # Type of FU issued
system.cpu1.iq.FU_type_0::SimdDiv                   0      0.00%     65.06% # Type of FU issued
system.cpu1.iq.FU_type_0::SimdSqrt                  0      0.00%     65.06% # Type of FU issued
system.cpu1.iq.FU_type_0::SimdFloatAdd              0      0.00%     65.06% # Type of FU issued
system.cpu1.iq.FU_type_0::SimdFloatAlu              0      0.00%     65.06% # Type of FU issued
system.cpu1.iq.FU_type_0::SimdFloatCmp              0      0.00%     65.06% # Type of FU issued
system.cpu1.iq.FU_type_0::SimdFloatCvt              0      0.00%     65.06% # Type of FU issued
system.cpu1.iq.FU_type_0::SimdFloatDiv              0      0.00%     65.06% # Type of FU issued
system.cpu1.iq.FU_type_0::SimdFloatMisc             0      0.00%     65.06% # Type of FU issued
system.cpu1.iq.FU_type_0::SimdFloatMult             0      0.00%     65.06% # Type of FU issued
system.cpu1.iq.FU_type_0::SimdFloatMultAcc            0      0.00%     65.06% # Type of FU issued
system.cpu1.iq.FU_type_0::SimdFloatSqrt             0      0.00%     65.06% # Type of FU issued
system.cpu1.iq.FU_type_0::SimdReduceAdd             0      0.00%     65.06% # Type of FU issued
system.cpu1.iq.FU_type_0::SimdReduceAlu             0      0.00%     65.06% # Type of FU issued
system.cpu1.iq.FU_type_0::SimdReduceCmp             0      0.00%     65.06% # Type of FU issued
system.cpu1.iq.FU_type_0::SimdFloatReduceAdd            0      0.00%     65.06% # Type of FU issued
system.cpu1.iq.FU_type_0::SimdFloatReduceCmp            0      0.00%     65.06% # Type of FU issued
system.cpu1.iq.FU_type_0::SimdAes                   0      0.00%     65.06% # Type of FU issued
system.cpu1.iq.FU_type_0::SimdAesMix                0      0.00%     65.06% # Type of FU issued
system.cpu1.iq.FU_type_0::SimdSha1Hash              0      0.00%     65.06% # Type of FU issued
system.cpu1.iq.FU_type_0::SimdSha1Hash2             0      0.00%     65.06% # Type of FU issued
system.cpu1.iq.FU_type_0::SimdSha256Hash            0      0.00%     65.06% # Type of FU issued
system.cpu1.iq.FU_type_0::SimdSha256Hash2            0      0.00%     65.06% # Type of FU issued
system.cpu1.iq.FU_type_0::SimdShaSigma2             0      0.00%     65.06% # Type of FU issued
system.cpu1.iq.FU_type_0::SimdShaSigma3             0      0.00%     65.06% # Type of FU issued
system.cpu1.iq.FU_type_0::SimdPredAlu               0      0.00%     65.06% # Type of FU issued
system.cpu1.iq.FU_type_0::MemRead            19024992     29.62%     94.68% # Type of FU issued
system.cpu1.iq.FU_type_0::MemWrite            3420218      5.32%    100.00% # Type of FU issued
system.cpu1.iq.FU_type_0::FloatMemRead              0      0.00%    100.00% # Type of FU issued
system.cpu1.iq.FU_type_0::FloatMemWrite            12      0.00%    100.00% # Type of FU issued
system.cpu1.iq.FU_type_0::IprAccess                 0      0.00%    100.00% # Type of FU issued
system.cpu1.iq.FU_type_0::InstPrefetch              0      0.00%    100.00% # Type of FU issued
system.cpu1.iq.FU_type_0::total              64236156                       # Type of FU issued
system.cpu1.iq.fp_alu_accesses                     16                       # Number of floating point alu accesses
system.cpu1.iq.fp_inst_queue_reads                 28                       # Number of floating instruction queue reads
system.cpu1.iq.fp_inst_queue_wakeup_accesses           12                       # Number of floating instruction queue wakeup accesses
system.cpu1.iq.fp_inst_queue_writes                12                       # Number of floating instruction queue writes
system.cpu1.iq.fu_busy_cnt                    1861890                       # FU busy when requested
system.cpu1.iq.fu_busy_rate                  0.028985                       # FU busy rate (busy events/executed inst)
system.cpu1.iq.fu_full::No_OpClass                  0      0.00%      0.00% # attempts to use FU when none available
system.cpu1.iq.fu_full::IntAlu                 268712     14.43%     14.43% # attempts to use FU when none available
system.cpu1.iq.fu_full::IntMult                     0      0.00%     14.43% # attempts to use FU when none available
system.cpu1.iq.fu_full::IntDiv                      0      0.00%     14.43% # attempts to use FU when none available
system.cpu1.iq.fu_full::FloatAdd                    0      0.00%     14.43% # attempts to use FU when none available
system.cpu1.iq.fu_full::FloatCmp                    0      0.00%     14.43% # attempts to use FU when none available
system.cpu1.iq.fu_full::FloatCvt                    0      0.00%     14.43% # attempts to use FU when none available
system.cpu1.iq.fu_full::FloatMult                   0      0.00%     14.43% # attempts to use FU when none available
system.cpu1.iq.fu_full::FloatMultAcc                0      0.00%     14.43% # attempts to use FU when none available
system.cpu1.iq.fu_full::FloatDiv                    0      0.00%     14.43% # attempts to use FU when none available
system.cpu1.iq.fu_full::FloatMisc                   0      0.00%     14.43% # attempts to use FU when none available
system.cpu1.iq.fu_full::FloatSqrt                   0      0.00%     14.43% # attempts to use FU when none available
system.cpu1.iq.fu_full::SimdAdd                     0      0.00%     14.43% # attempts to use FU when none available
system.cpu1.iq.fu_full::SimdAddAcc                  0      0.00%     14.43% # attempts to use FU when none available
system.cpu1.iq.fu_full::SimdAlu                     0      0.00%     14.43% # attempts to use FU when none available
system.cpu1.iq.fu_full::SimdCmp                     0      0.00%     14.43% # attempts to use FU when none available
system.cpu1.iq.fu_full::SimdCvt                     0      0.00%     14.43% # attempts to use FU when none available
system.cpu1.iq.fu_full::SimdMisc                    0      0.00%     14.43% # attempts to use FU when none available
system.cpu1.iq.fu_full::SimdMult                    0      0.00%     14.43% # attempts to use FU when none available
system.cpu1.iq.fu_full::SimdMultAcc                 0      0.00%     14.43% # attempts to use FU when none available
system.cpu1.iq.fu_full::SimdShift                   0      0.00%     14.43% # attempts to use FU when none available
system.cpu1.iq.fu_full::SimdShiftAcc                0      0.00%     14.43% # attempts to use FU when none available
system.cpu1.iq.fu_full::SimdDiv                     0      0.00%     14.43% # attempts to use FU when none available
system.cpu1.iq.fu_full::SimdSqrt                    0      0.00%     14.43% # attempts to use FU when none available
system.cpu1.iq.fu_full::SimdFloatAdd                0      0.00%     14.43% # attempts to use FU when none available
system.cpu1.iq.fu_full::SimdFloatAlu                0      0.00%     14.43% # attempts to use FU when none available
system.cpu1.iq.fu_full::SimdFloatCmp                0      0.00%     14.43% # attempts to use FU when none available
system.cpu1.iq.fu_full::SimdFloatCvt                0      0.00%     14.43% # attempts to use FU when none available
system.cpu1.iq.fu_full::SimdFloatDiv                0      0.00%     14.43% # attempts to use FU when none available
system.cpu1.iq.fu_full::SimdFloatMisc               0      0.00%     14.43% # attempts to use FU when none available
system.cpu1.iq.fu_full::SimdFloatMult               0      0.00%     14.43% # attempts to use FU when none available
system.cpu1.iq.fu_full::SimdFloatMultAcc            0      0.00%     14.43% # attempts to use FU when none available
system.cpu1.iq.fu_full::SimdFloatSqrt               0      0.00%     14.43% # attempts to use FU when none available
system.cpu1.iq.fu_full::SimdReduceAdd               0      0.00%     14.43% # attempts to use FU when none available
system.cpu1.iq.fu_full::SimdReduceAlu               0      0.00%     14.43% # attempts to use FU when none available
system.cpu1.iq.fu_full::SimdReduceCmp               0      0.00%     14.43% # attempts to use FU when none available
system.cpu1.iq.fu_full::SimdFloatReduceAdd            0      0.00%     14.43% # attempts to use FU when none available
system.cpu1.iq.fu_full::SimdFloatReduceCmp            0      0.00%     14.43% # attempts to use FU when none available
system.cpu1.iq.fu_full::SimdAes                     0      0.00%     14.43% # attempts to use FU when none available
system.cpu1.iq.fu_full::SimdAesMix                  0      0.00%     14.43% # attempts to use FU when none available
system.cpu1.iq.fu_full::SimdSha1Hash                0      0.00%     14.43% # attempts to use FU when none available
system.cpu1.iq.fu_full::SimdSha1Hash2               0      0.00%     14.43% # attempts to use FU when none available
system.cpu1.iq.fu_full::SimdSha256Hash              0      0.00%     14.43% # attempts to use FU when none available
system.cpu1.iq.fu_full::SimdSha256Hash2             0      0.00%     14.43% # attempts to use FU when none available
system.cpu1.iq.fu_full::SimdShaSigma2               0      0.00%     14.43% # attempts to use FU when none available
system.cpu1.iq.fu_full::SimdShaSigma3               0      0.00%     14.43% # attempts to use FU when none available
system.cpu1.iq.fu_full::SimdPredAlu                 0      0.00%     14.43% # attempts to use FU when none available
system.cpu1.iq.fu_full::MemRead               1437469     77.20%     91.64% # attempts to use FU when none available
system.cpu1.iq.fu_full::MemWrite               155705      8.36%    100.00% # attempts to use FU when none available
[...]
system.cpu1.dcache.ReadReq_avg_mshr_miss_latency::.cpu1.data 64230.441654                       # average ReadReq mshr miss latency
system.cpu1.dcache.ReadReq_avg_mshr_miss_latency::total 64230.441654                       # average ReadReq mshr miss latency
system.cpu1.dcache.WriteReq_hits::.cpu1.data      1394603                       # number of WriteReq hits
system.cpu1.dcache.WriteReq_hits::total       1394603                       # number of WriteReq hits
system.cpu1.dcache.WriteReq_misses::.cpu1.data       467057                       # number of WriteReq misses
system.cpu1.dcache.WriteReq_misses::total       467057                       # number of WriteReq misses
system.cpu1.dcache.WriteReq_miss_latency::.cpu1.data  30913057383                       # number of WriteReq miss cycles
system.cpu1.dcache.WriteReq_miss_latency::total  30913057383                       # number of WriteReq miss cycles
system.cpu1.dcache.WriteReq_accesses::.cpu1.data      1861660                       # number of WriteReq accesses(hits+misses)
system.cpu1.dcache.WriteReq_accesses::total      1861660                       # number of WriteReq accesses(hits+misses)
system.cpu1.dcache.WriteReq_miss_rate::.cpu1.data     0.250882                       # miss rate for WriteReq accesses
system.cpu1.dcache.WriteReq_miss_rate::total     0.250882                       # miss rate for WriteReq accesses
system.cpu1.dcache.WriteReq_avg_miss_latency::.cpu1.data 66186.905202                       # average WriteReq miss latency
system.cpu1.dcache.WriteReq_avg_miss_latency::total 66186.905202                       # average WriteReq miss latency
system.cpu1.dcache.WriteReq_mshr_hits::.cpu1.data       376006                       # number of WriteReq MSHR hits
system.cpu1.dcache.WriteReq_mshr_hits::total       376006                       # number of WriteReq MSHR hits
system.cpu1.dcache.WriteReq_mshr_misses::.cpu1.data        91051                       # number of WriteReq MSHR misses
system.cpu1.dcache.WriteReq_mshr_misses::total        91051                       # number of WriteReq MSHR misses
system.cpu1.dcache.WriteReq_mshr_miss_latency::.cpu1.data   4657841011                       # number of WriteReq MSHR miss cycles
system.cpu1.dcache.WriteReq_mshr_miss_latency::total   4657841011                       # number of WriteReq MSHR miss cycles
system.cpu1.dcache.WriteReq_mshr_miss_rate::.cpu1.data     0.048909                       # mshr miss rate for WriteReq accesses
system.cpu1.dcache.WriteReq_mshr_miss_rate::total     0.048909                       # mshr miss rate for WriteReq accesses
system.cpu1.dcache.WriteReq_avg_mshr_miss_latency::.cpu1.data 51156.395987                       # average WriteReq mshr miss latency
system.cpu1.dcache.WriteReq_avg_mshr_miss_latency::total 51156.395987                       # average WriteReq mshr miss latency
system.cpu1.dcache.LoadLockedReq_hits::.cpu1.data        67463                       # number of LoadLockedReq hits
system.cpu1.dcache.LoadLockedReq_hits::total        67463                       # number of LoadLockedReq hits
system.cpu1.dcache.LoadLockedReq_misses::.cpu1.data          730                       # number of LoadLockedReq misses
system.cpu1.dcache.LoadLockedReq_misses::total          730                       # number of LoadLockedReq misses
system.cpu1.dcache.LoadLockedReq_miss_latency::.cpu1.data     35360500                       # number of LoadLockedReq miss cycles
system.cpu1.dcache.LoadLockedReq_miss_latency::total     35360500                       # number of LoadLockedReq miss cycles
system.cpu1.dcache.LoadLockedReq_accesses::.cpu1.data        68193                       # number of LoadLockedReq accesses(hits+misses)
system.cpu1.dcache.LoadLockedReq_accesses::total        68193                       # number of LoadLockedReq accesses(hits+misses)
system.cpu1.dcache.LoadLockedReq_miss_rate::.cpu1.data     0.010705                       # miss rate for LoadLockedReq accesses
system.cpu1.dcache.LoadLockedReq_miss_rate::total     0.010705                       # miss rate for LoadLockedReq accesses
system.cpu1.dcache.LoadLockedReq_avg_miss_latency::.cpu1.data 48439.041096                       # average LoadLockedReq miss latency
system.cpu1.dcache.LoadLockedReq_avg_miss_latency::total 48439.041096                       # average LoadLockedReq miss latency
system.cpu1.dcache.LoadLockedReq_mshr_hits::.cpu1.data          173                       # number of LoadLockedReq MSHR hits
system.cpu1.dcache.LoadLockedReq_mshr_hits::total          173                       # number of LoadLockedReq MSHR hits
system.cpu1.dcache.LoadLockedReq_mshr_misses::.cpu1.data          557                       # number of LoadLockedReq MSHR misses
system.cpu1.dcache.LoadLockedReq_mshr_misses::total          557                       # number of LoadLockedReq MSHR misses
system.cpu1.dcache.LoadLockedReq_mshr_miss_latency::.cpu1.data     21269000                       # number of LoadLockedReq MSHR miss cycles
system.cpu1.dcache.LoadLockedReq_mshr_miss_latency::total     21269000                       # number of LoadLockedReq MSHR miss cycles
system.cpu1.dcache.LoadLockedReq_mshr_miss_rate::.cpu1.data     0.008168                       # mshr miss rate for LoadLockedReq accesses
system.cpu1.dcache.LoadLockedReq_mshr_miss_rate::total     0.008168                       # mshr miss rate for LoadLockedReq accesses
system.cpu1.dcache.LoadLockedReq_avg_mshr_miss_latency::.cpu1.data 38184.919210                       # average LoadLockedReq mshr miss latency
system.cpu1.dcache.LoadLockedReq_avg_mshr_miss_latency::total 38184.919210                       # average LoadLockedReq mshr miss latency
system.cpu1.dcache.StoreCondReq_hits::.cpu1.data        63371                       # number of StoreCondReq hits
system.cpu1.dcache.StoreCondReq_hits::total        63371                       # number of StoreCondReq hits
system.cpu1.dcache.StoreCondReq_misses::.cpu1.data         4589                       # number of StoreCondReq misses
system.cpu1.dcache.StoreCondReq_misses::total         4589                       # number of StoreCondReq misses
system.cpu1.dcache.StoreCondReq_miss_latency::.cpu1.data     25472500                       # number of StoreCondReq miss cycles
system.cpu1.dcache.StoreCondReq_miss_latency::total     25472500                       # number of StoreCondReq miss cycles
system.cpu1.dcache.StoreCondReq_accesses::.cpu1.data        67960                       # number of StoreCondReq accesses(hits+misses)
system.cpu1.dcache.StoreCondReq_accesses::total        67960                       # number of StoreCondReq accesses(hits+misses)
system.cpu1.dcache.StoreCondReq_miss_rate::.cpu1.data     0.067525                       # miss rate for StoreCondReq accesses
system.cpu1.dcache.StoreCondReq_miss_rate::total     0.067525                       # miss rate for StoreCondReq accesses
system.cpu1.dcache.StoreCondReq_avg_miss_latency::.cpu1.data  5550.773589                       # average StoreCondReq miss latency
system.cpu1.dcache.StoreCondReq_avg_miss_latency::total  5550.773589                       # average StoreCondReq miss latency
system.cpu1.dcache.StoreCondReq_mshr_misses::.cpu1.data         4542                       # number of StoreCondReq MSHR misses
system.cpu1.dcache.StoreCondReq_mshr_misses::total         4542                       # number of StoreCondReq MSHR misses
system.cpu1.dcache.StoreCondReq_mshr_miss_latency::.cpu1.data     20960500                       # number of StoreCondReq MSHR miss cycles
system.cpu1.dcache.StoreCondReq_mshr_miss_latency::total     20960500                       # number of StoreCondReq MSHR miss cycles
system.cpu1.dcache.StoreCondReq_mshr_miss_rate::.cpu1.data     0.066833                       # mshr miss rate for StoreCondReq accesses
system.cpu1.dcache.StoreCondReq_mshr_miss_rate::total     0.066833                       # mshr miss rate for StoreCondReq accesses
system.cpu1.dcache.StoreCondReq_avg_mshr_miss_latency::.cpu1.data  4614.817261                       # average StoreCondReq mshr miss latency
system.cpu1.dcache.StoreCondReq_avg_mshr_miss_latency::total  4614.817261                       # average StoreCondReq mshr miss latency
system.cpu1.dcache.StoreCondFailReq_miss_latency::.cpu1.data       757500                       # number of StoreCondFailReq miss cycles
system.cpu1.dcache.StoreCondFailReq_miss_latency::total       757500                       # number of StoreCondFailReq miss cycles
system.cpu1.dcache.StoreCondFailReq_avg_miss_latency::.cpu1.data          inf                       # average StoreCondFailReq miss latency
system.cpu1.dcache.StoreCondFailReq_avg_miss_latency::total          inf                       # average StoreCondFailReq miss latency
system.cpu1.dcache.StoreCondFailReq_mshr_miss_latency::.cpu1.data       727500                       # number of StoreCondFailReq MSHR miss cycles
system.cpu1.dcache.StoreCondFailReq_mshr_miss_latency::total       727500                       # number of StoreCondFailReq MSHR miss cycles
system.cpu1.dcache.StoreCondFailReq_avg_mshr_miss_latency::.cpu1.data          inf                       # average StoreCondFailReq mshr miss latency
system.cpu1.dcache.StoreCondFailReq_avg_mshr_miss_latency::total          inf                       # average StoreCondFailReq mshr miss latency
system.cpu1.dcache.SwapReq_hits::.cpu1.data         1509                       # number of SwapReq hits
system.cpu1.dcache.SwapReq_hits::total           1509                       # number of SwapReq hits
system.cpu1.dcache.SwapReq_misses::.cpu1.data         2832                       # number of SwapReq misses
system.cpu1.dcache.SwapReq_misses::total         2832                       # number of SwapReq misses
system.cpu1.dcache.SwapReq_miss_latency::.cpu1.data    123951000                       # number of SwapReq miss cycles
system.cpu1.dcache.SwapReq_miss_latency::total    123951000                       # number of SwapReq miss cycles
system.cpu1.dcache.SwapReq_accesses::.cpu1.data         4341                       # number of SwapReq accesses(hits+misses)
system.cpu1.dcache.SwapReq_accesses::total         4341                       # number of SwapReq accesses(hits+misses)
system.cpu1.dcache.SwapReq_miss_rate::.cpu1.data     0.652384                       # miss rate for SwapReq accesses
system.cpu1.dcache.SwapReq_miss_rate::total     0.652384                       # miss rate for SwapReq accesses
system.cpu1.dcache.SwapReq_avg_miss_latency::.cpu1.data 43768.008475                       # average SwapReq miss latency
system.cpu1.dcache.SwapReq_avg_miss_latency::total 43768.008475                       # average SwapReq miss latency
system.cpu1.dcache.SwapReq_mshr_misses::.cpu1.data         2832                       # number of SwapReq MSHR misses
system.cpu1.dcache.SwapReq_mshr_misses::total         2832                       # number of SwapReq MSHR misses
system.cpu1.dcache.SwapReq_mshr_miss_latency::.cpu1.data    121119000                       # number of SwapReq MSHR miss cycles
system.cpu1.dcache.SwapReq_mshr_miss_latency::total    121119000                       # number of SwapReq MSHR miss cycles
system.cpu1.dcache.SwapReq_mshr_miss_rate::.cpu1.data     0.652384                       # mshr miss rate for SwapReq accesses
system.cpu1.dcache.SwapReq_mshr_miss_rate::total     0.652384                       # mshr miss rate for SwapReq accesses
system.cpu1.dcache.SwapReq_avg_mshr_miss_latency::.cpu1.data 42768.008475                       # average SwapReq mshr miss latency
system.cpu1.dcache.SwapReq_avg_mshr_miss_latency::total 42768.008475                       # average SwapReq mshr miss latency
system.cpu1.dcache.tags.pwrStateResidencyTicks::UNDEFINED  74532166500                       # Cumulative time (in ticks) in various power states
system.cpu1.dcache.tags.tagsinuse           31.058085                       # Cycle average of tags in use
system.cpu1.dcache.tags.total_refs           17202164                       # Total number of references to valid blocks.
system.cpu1.dcache.tags.sampled_refs          1475495                       # Sample count of references to valid blocks.
system.cpu1.dcache.tags.avg_refs            11.658572                       # Average number of references to valid blocks.
system.cpu1.dcache.tags.warmup_cycle                0                       # Cycle when the warmup percentage was hit.
system.cpu1.dcache.tags.occ_blocks::.cpu1.data    31.058085                       # Average occupied blocks per requestor
system.cpu1.dcache.tags.occ_percent::.cpu1.data     0.970565                       # Average percentage of cache occupancy
system.cpu1.dcache.tags.occ_percent::total     0.970565                       # Average percentage of cache occupancy
system.cpu1.dcache.tags.occ_task_id_blocks::1024           28                       # Occupied blocks per task id
system.cpu1.dcache.tags.age_task_id_blocks_1024::1           28                       # Occupied blocks per task id
system.cpu1.dcache.tags.occ_task_id_percent::1024     0.875000                       # Percentage of cache occupancy per task id
system.cpu1.dcache.tags.tag_accesses         45563958                       # Number of tag accesses
system.cpu1.dcache.tags.data_accesses        45563958                       # Number of data accesses
system.cpu_clk_domain.clock                       500                       # Clock period in ticks
system.tol2bus.pwrStateResidencyTicks::UNDEFINED  74532166500                       # Cumulative time (in ticks) in various power states
system.tol2bus.trans_dist::ReadResp           3045598                       # Transaction distribution
system.tol2bus.trans_dist::WritebackDirty       815745                       # Transaction distribution
system.tol2bus.trans_dist::WritebackClean      2668059                       # Transaction distribution
system.tol2bus.trans_dist::CleanEvict         5362728                       # Transaction distribution
system.tol2bus.trans_dist::HardPFReq          3066711                       # Transaction distribution
system.tol2bus.trans_dist::UpgradeReq           51328                       # Transaction distribution
system.tol2bus.trans_dist::SCUpgradeReq          9125                       # Transaction distribution
system.tol2bus.trans_dist::UpgradeResp          60453                       # Transaction distribution
system.tol2bus.trans_dist::SCUpgradeFailReq           69                       # Transaction distribution
system.tol2bus.trans_dist::UpgradeFailResp           69                       # Transaction distribution
system.tol2bus.trans_dist::ReadExReq           169316                       # Transaction distribution
system.tol2bus.trans_dist::ReadExResp          169317                       # Transaction distribution
system.tol2bus.trans_dist::ReadCleanReq        117839                       # Transaction distribution
system.tol2bus.trans_dist::ReadSharedReq      2927758                       # Transaction distribution
system.tol2bus.trans_dist::InvalidateReq         1286                       # Transaction distribution
system.tol2bus.trans_dist::InvalidateResp         1286                       # Transaction distribution
system.tol2bus.pkt_count_system.cpu0.icache.mem_side::system.l2.cpu_side       295167                       # Packet count per connected master and slave (bytes)
system.tol2bus.pkt_count_system.cpu0.dcache.mem_side::system.l2.cpu_side      4823145                       # Packet count per connected master and slave (bytes)
system.tol2bus.pkt_count_system.cpu1.icache.mem_side::system.l2.cpu_side        58332                       # Packet count per connected master and slave (bytes)
system.tol2bus.pkt_count_system.cpu1.dcache.mem_side::system.l2.cpu_side      4380498                       # Packet count per connected master and slave (bytes)
system.tol2bus.pkt_count::total               9557142                       # Packet count per connected master and slave (bytes)
system.tol2bus.pkt_size_system.cpu0.icache.mem_side::system.l2.cpu_side     12593408                       # Cumulative packet size per connected master and slave (bytes)
system.tol2bus.pkt_size_system.cpu0.dcache.mem_side::system.l2.cpu_side    202432384                       # Cumulative packet size per connected master and slave (bytes)
system.tol2bus.pkt_size_system.cpu1.icache.mem_side::system.l2.cpu_side      2488832                       # Cumulative packet size per connected master and slave (bytes)
system.tol2bus.pkt_size_system.cpu1.dcache.mem_side::system.l2.cpu_side    183621696                       # Cumulative packet size per connected master and slave (bytes)
system.tol2bus.pkt_size::total              401136320                       # Cumulative packet size per connected master and slave (bytes)
system.tol2bus.snoops                         8909545                       # Total snoops (count)
system.tol2bus.snoopTraffic                  27586112                       # Total snoop traffic (bytes)
system.tol2bus.snoop_fanout::samples         12055264                       # Request fanout histogram
system.tol2bus.snoop_fanout::mean            0.233244                       # Request fanout histogram
system.tol2bus.snoop_fanout::stdev           0.447212                       # Request fanout histogram
system.tol2bus.snoop_fanout::underflows             0      0.00%      0.00% # Request fanout histogram
system.tol2bus.snoop_fanout::0                9370679     77.73%     77.73% # Request fanout histogram
system.tol2bus.snoop_fanout::1                2557657     21.22%     98.95% # Request fanout histogram
system.tol2bus.snoop_fanout::2                 126626      1.05%    100.00% # Request fanout histogram
system.tol2bus.snoop_fanout::3                    302      0.00%    100.00% # Request fanout histogram
system.tol2bus.snoop_fanout::4                      0      0.00%    100.00% # Request fanout histogram
system.tol2bus.snoop_fanout::5                      0      0.00%    100.00% # Request fanout histogram
system.tol2bus.snoop_fanout::6                      0      0.00%    100.00% # Request fanout histogram
system.tol2bus.snoop_fanout::7                      0      0.00%    100.00% # Request fanout histogram
system.tol2bus.snoop_fanout::8                      0      0.00%    100.00% # Request fanout histogram
system.tol2bus.snoop_fanout::overflows              0      0.00%    100.00% # Request fanout histogram
system.tol2bus.snoop_fanout::min_value              0                       # Request fanout histogram
system.tol2bus.snoop_fanout::max_value              3                       # Request fanout histogram
system.tol2bus.snoop_fanout::total           12055264                       # Request fanout histogram
system.tol2bus.reqLayer0.occupancy         6343771357                       # Layer occupancy (ticks)
system.tol2bus.reqLayer0.utilization              8.5                       # Layer utilization (%)
system.tol2bus.respLayer1.occupancy        2453630225                       # Layer occupancy (ticks)
system.tol2bus.respLayer1.utilization             3.3                       # Layer utilization (%)
system.tol2bus.respLayer0.occupancy         147701783                       # Layer occupancy (ticks)
system.tol2bus.respLayer0.utilization             0.2                       # Layer utilization (%)
system.tol2bus.respLayer3.occupancy        2233656747                       # Layer occupancy (ticks)
system.tol2bus.respLayer3.utilization             3.0                       # Layer utilization (%)
system.tol2bus.respLayer2.occupancy          29346139                       # Layer occupancy (ticks)
system.tol2bus.respLayer2.utilization             0.0                       # Layer utilization (%)

---------- End Simulation Statistics   ----------
