
---------- Begin Simulation Statistics ----------
final_tick                               2182450247000                       # Number of ticks from beginning of simulation (restored from checkpoints and never reset)
host_inst_rate                                  58730                       # Simulator instruction rate (inst/s)
host_mem_usage                                 702420                       # Number of bytes of host memory used
host_op_rate                                    58920                       # Simulator op (including micro ops) rate (op/s)
host_seconds                                 40100.17                       # Real time elapsed on the host
host_tick_rate                               54424960                       # Simulator tick rate (ticks/s)
sim_freq                                 1000000000000                       # Frequency of simulated ticks
sim_insts                                  2355089535                       # Number of instructions simulated
sim_ops                                    2362698481                       # Number of ops (including micro ops) simulated
sim_seconds                                  2.182450                       # Number of seconds simulated
sim_ticks                                2182450247000                       # Number of ticks simulated
system.cpu0.branchPred.BTBCorrect                   0                       # Number of correct BTB predictions (this stat may not work properly.
system.cpu0.branchPred.BTBHitPct            85.017022                       # BTB Hit Percentage
system.cpu0.branchPred.BTBHits              293578061                       # Number of BTB hits
system.cpu0.branchPred.BTBLookups           345316800                       # Number of BTB lookups
system.cpu0.branchPred.RASInCorrect                 0                       # Number of incorrect RAS predictions.
system.cpu0.branchPred.condIncorrect         19470173                       # Number of conditional branches incorrect
system.cpu0.branchPred.condPredicted        468944890                       # Number of conditional branches predicted
system.cpu0.branchPred.indirectHits          47023613                       # Number of indirect target hits.
system.cpu0.branchPred.indirectLookups       47458133                       # Number of indirect predictor lookups.
system.cpu0.branchPred.indirectMisses          434520                       # Number of indirect misses.
system.cpu0.branchPred.lookups              602129447                       # Number of BP lookups
system.cpu0.branchPred.usedRAS                      0                       # Number of times the RAS was used to get a target.
system.cpu0.branchPredindirectMispredicted      3964312                       # Number of mispredicted indirect branches.
system.cpu0.commit.amos                       3801869                       # Number of atomic instructions committed
system.cpu0.commit.branchMispredicts         13725531                       # The number of times a branch was mispredicted
system.cpu0.commit.branches                 555077778                       # Number of branches committed
system.cpu0.commit.bw_lim_events             76658375                       # number cycles where commit BW limit reached
system.cpu0.commit.commitNonSpecStalls       11419603                       # The number of times commit has been forced to stall to communicate backwards
system.cpu0.commit.commitSquashedInsts      199557392                       # The number of squashed insts skipped by commit
system.cpu0.commit.committedInsts          2225001374                       # Number of instructions committed
system.cpu0.commit.committedOps            2228808566                       # Number of ops (including micro ops) committed
system.cpu0.commit.committed_per_cycle::samples   3908112891                       # Number of insts commited each cycle
system.cpu0.commit.committed_per_cycle::mean     0.570303                       # Number of insts commited each cycle
system.cpu0.commit.committed_per_cycle::stdev     1.397980                       # Number of insts commited each cycle
system.cpu0.commit.committed_per_cycle::underflows            0      0.00%      0.00% # Number of insts commited each cycle
system.cpu0.commit.committed_per_cycle::0   2875563973     73.58%     73.58% # Number of insts commited each cycle
system.cpu0.commit.committed_per_cycle::1    615650142     15.75%     89.33% # Number of insts commited each cycle
system.cpu0.commit.committed_per_cycle::2    140959645      3.61%     92.94% # Number of insts commited each cycle
system.cpu0.commit.committed_per_cycle::3    133551470      3.42%     96.36% # Number of insts commited each cycle
system.cpu0.commit.committed_per_cycle::4     40395206      1.03%     97.39% # Number of insts commited each cycle
system.cpu0.commit.committed_per_cycle::5      7223578      0.18%     97.58% # Number of insts commited each cycle
system.cpu0.commit.committed_per_cycle::6      7154504      0.18%     97.76% # Number of insts commited each cycle
system.cpu0.commit.committed_per_cycle::7     10955998      0.28%     98.04% # Number of insts commited each cycle
system.cpu0.commit.committed_per_cycle::8     76658375      1.96%    100.00% # Number of insts commited each cycle
system.cpu0.commit.committed_per_cycle::overflows            0      0.00%    100.00% # Number of insts commited each cycle
system.cpu0.commit.committed_per_cycle::min_value            0                       # Number of insts commited each cycle
system.cpu0.commit.committed_per_cycle::max_value            8                       # Number of insts commited each cycle
system.cpu0.commit.committed_per_cycle::total   3908112891                       # Number of insts commited each cycle
system.cpu0.commit.fp_insts                        65                       # Number of committed floating point instructions.
system.cpu0.commit.function_calls            44168678                       # Number of function calls committed.
system.cpu0.commit.int_insts               2151097217                       # Number of committed integer instructions.
system.cpu0.commit.loads                    691580655                       # Number of loads committed
system.cpu0.commit.membars                    7608935                       # Number of memory barriers committed
system.cpu0.commit.op_class_0::No_OpClass      7608944      0.34%      0.34% # Class of committed instruction
system.cpu0.commit.op_class_0::IntAlu      1238913541     55.59%     55.93% # Class of committed instruction
system.cpu0.commit.op_class_0::IntMult       18316849      0.82%     56.75% # Class of committed instruction
system.cpu0.commit.op_class_0::IntDiv         3801415      0.17%     56.92% # Class of committed instruction
system.cpu0.commit.op_class_0::FloatAdd             0      0.00%     56.92% # Class of committed instruction
system.cpu0.commit.op_class_0::FloatCmp             6      0.00%     56.92% # Class of committed instruction
system.cpu0.commit.op_class_0::FloatCvt            16      0.00%     56.92% # Class of committed instruction
system.cpu0.commit.op_class_0::FloatMult            0      0.00%     56.92% # Class of committed instruction
system.cpu0.commit.op_class_0::FloatMultAcc            0      0.00%     56.92% # Class of committed instruction
system.cpu0.commit.op_class_0::FloatDiv             2      0.00%     56.92% # Class of committed instruction
system.cpu0.commit.op_class_0::FloatMisc            6      0.00%     56.92% # Class of committed instruction
system.cpu0.commit.op_class_0::FloatSqrt            0      0.00%     56.92% # Class of committed instruction
system.cpu0.commit.op_class_0::SimdAdd              0      0.00%     56.92% # Class of committed instruction
system.cpu0.commit.op_class_0::SimdAddAcc            0      0.00%     56.92% # Class of committed instruction
system.cpu0.commit.op_class_0::SimdAlu              0      0.00%     56.92% # Class of committed instruction
system.cpu0.commit.op_class_0::SimdCmp              0      0.00%     56.92% # Class of committed instruction
system.cpu0.commit.op_class_0::SimdCvt              0      0.00%     56.92% # Class of committed instruction
system.cpu0.commit.op_class_0::SimdMisc             0      0.00%     56.92% # Class of committed instruction
system.cpu0.commit.op_class_0::SimdMult             0      0.00%     56.92% # Class of committed instruction
system.cpu0.commit.op_class_0::SimdMultAcc            0      0.00%     56.92% # Class of committed instruction
system.cpu0.commit.op_class_0::SimdShift            0      0.00%     56.92% # Class of committed instruction
system.cpu0.commit.op_class_0::SimdShiftAcc            0      0.00%     56.92% # Class of committed instruction
system.cpu0.commit.op_class_0::SimdDiv              0      0.00%     56.92% # Class of committed instruction
system.cpu0.commit.op_class_0::SimdSqrt             0      0.00%     56.92% # Class of committed instruction
system.cpu0.commit.op_class_0::SimdFloatAdd            0      0.00%     56.92% # Class of committed instruction
system.cpu0.commit.op_class_0::SimdFloatAlu            0      0.00%     56.92% # Class of committed instruction
system.cpu0.commit.op_class_0::SimdFloatCmp            0      0.00%     56.92% # Class of committed instruction
system.cpu0.commit.op_class_0::SimdFloatCvt            0      0.00%     56.92% # Class of committed instruction
system.cpu0.commit.op_class_0::SimdFloatDiv            0      0.00%     56.92% # Class of committed instruction
system.cpu0.commit.op_class_0::SimdFloatMisc            0      0.00%     56.92% # Class of committed instruction
system.cpu0.commit.op_class_0::SimdFloatMult            0      0.00%     56.92% # Class of committed instruction
system.cpu0.commit.op_class_0::SimdFloatMultAcc            0      0.00%     56.92% # Class of committed instruction
system.cpu0.commit.op_class_0::SimdFloatSqrt            0      0.00%     56.92% # Class of committed instruction
system.cpu0.commit.op_class_0::SimdReduceAdd            0      0.00%     56.92% # Class of committed instruction
system.cpu0.commit.op_class_0::SimdReduceAlu            0      0.00%     56.92% # Class of committed instruction
system.cpu0.commit.op_class_0::SimdReduceCmp            0      0.00%     56.92% # Class of committed instruction
system.cpu0.commit.op_class_0::SimdFloatReduceAdd            0      0.00%     56.92% # Class of committed instruction
system.cpu0.commit.op_class_0::SimdFloatReduceCmp            0      0.00%     56.92% # Class of committed instruction
system.cpu0.commit.op_class_0::SimdAes              0      0.00%     56.92% # Class of committed instruction
system.cpu0.commit.op_class_0::SimdAesMix            0      0.00%     56.92% # Class of committed instruction
system.cpu0.commit.op_class_0::SimdSha1Hash            0      0.00%     56.92% # Class of committed instruction
system.cpu0.commit.op_class_0::SimdSha1Hash2            0      0.00%     56.92% # Class of committed instruction
system.cpu0.commit.op_class_0::SimdSha256Hash            0      0.00%     56.92% # Class of committed instruction
system.cpu0.commit.op_class_0::SimdSha256Hash2            0      0.00%     56.92% # Class of committed instruction
system.cpu0.commit.op_class_0::SimdShaSigma2            0      0.00%     56.92% # Class of committed instruction
system.cpu0.commit.op_class_0::SimdShaSigma3            0      0.00%     56.92% # Class of committed instruction
system.cpu0.commit.op_class_0::SimdPredAlu            0      0.00%     56.92% # Class of committed instruction
system.cpu0.commit.op_class_0::MemRead      695382512     31.20%     88.12% # Class of committed instruction
system.cpu0.commit.op_class_0::MemWrite     264785240     11.88%    100.00% # Class of committed instruction
system.cpu0.commit.op_class_0::FloatMemRead           12      0.00%    100.00% # Class of committed instruction
system.cpu0.commit.op_class_0::FloatMemWrite           23      0.00%    100.00% # Class of committed instruction
system.cpu0.commit.op_class_0::IprAccess            0      0.00%    100.00% # Class of committed instruction
system.cpu0.commit.op_class_0::InstPrefetch            0      0.00%    100.00% # Class of committed instruction
system.cpu0.commit.op_class_0::total       2228808566                       # Class of committed instruction
system.cpu0.commit.refs                     960167787                       # Number of memory references committed
system.cpu0.commit.swp_count                        0                       # Number of s/w prefetches committed
system.cpu0.commit.vec_insts                        0                       # Number of committed Vector instructions.
system.cpu0.committedInsts                 2225001374                       # Number of Instructions Simulated
system.cpu0.committedOps                   2228808566                       # Number of Ops (including micro ops) Simulated
system.cpu0.cpi                              1.959018                       # CPI: Cycles Per Instruction
system.cpu0.cpi_total                        1.959018                       # CPI: Total CPI of All Threads
system.cpu0.decode.BlockedCycles            719333999                       # Number of cycles decode is blocked
system.cpu0.decode.BranchMispred              5762791                       # Number of times decode detected a branch misprediction
system.cpu0.decode.BranchResolved           291566832                       # Number of times decode resolved a branch
system.cpu0.decode.DecodedInsts            2459575908                       # Number of instructions handled by decode
system.cpu0.decode.IdleCycles              1472073363                       # Number of cycles decode is idle
system.cpu0.decode.RunCycles               1722252191                       # Number of cycles decode is running
system.cpu0.decode.SquashCycles              13751863                       # Number of cycles decode is squashing
system.cpu0.decode.SquashedInsts             18167610                       # Number of squashed instructions handled by decode
system.cpu0.decode.UnblockCycles             13842168                       # Number of cycles decode is unblocking
system.cpu0.dtb.accesses                            0                       # DTB accesses
system.cpu0.dtb.hits                                0                       # DTB hits
system.cpu0.dtb.misses                              0                       # DTB misses
system.cpu0.dtb.read_accesses                       0                       # DTB read accesses
system.cpu0.dtb.read_hits                           0                       # DTB read hits
system.cpu0.dtb.read_misses                         0                       # DTB read misses
system.cpu0.dtb.write_accesses                      0                       # DTB write accesses
system.cpu0.dtb.write_hits                          0                       # DTB write hits
system.cpu0.dtb.write_misses                        0                       # DTB write misses
system.cpu0.fetch.Branches                  602129447                       # Number of branches that fetch encountered
system.cpu0.fetch.CacheLines                435893644                       # Number of cache lines fetched
system.cpu0.fetch.Cycles                   2455565720                       # Number of cycles fetch has run and was not squashing or blocked
system.cpu0.fetch.IcacheSquashes              9120288                       # Number of outstanding Icache misses that were squashed
system.cpu0.fetch.IcacheWaitRetryStallCycles          159                       # Number of stall cycles due to full MSHR
system.cpu0.fetch.Insts                    2488781376                       # Number of instructions fetch has processed
system.cpu0.fetch.MiscStallCycles                  40                       # Number of cycles fetch has spent waiting on interrupts, or bad addresses, or out of MSHRs
system.cpu0.fetch.PendingTrapStallCycles          184                       # Number of stall cycles due to pending traps
system.cpu0.fetch.SquashCycles               38993052                       # Number of cycles fetch has spent squashing
system.cpu0.fetch.branchRate                 0.138141                       # Number of branch fetches per cycle
system.cpu0.fetch.icacheStallCycles        1466190955                       # Number of cycles fetch is stalled on an Icache miss
system.cpu0.fetch.predictedBranches         340601674                       # Number of branches that fetch has predicted taken
system.cpu0.fetch.rate                       0.570976                       # Number of inst fetches per cycle
system.cpu0.fetch.rateDist::samples        3941253584                       # Number of instructions fetched each cycle (Total)
system.cpu0.fetch.rateDist::mean             0.632436                       # Number of instructions fetched each cycle (Total)
system.cpu0.fetch.rateDist::stdev            0.872123                       # Number of instructions fetched each cycle (Total)
system.cpu0.fetch.rateDist::underflows              0      0.00%      0.00% # Number of instructions fetched each cycle (Total)
system.cpu0.fetch.rateDist::0              2143565734     54.39%     54.39% # Number of instructions fetched each cycle (Total)
system.cpu0.fetch.rateDist::1              1344219747     34.11%     88.49% # Number of instructions fetched each cycle (Total)
system.cpu0.fetch.rateDist::2               277924866      7.05%     95.55% # Number of instructions fetched each cycle (Total)
system.cpu0.fetch.rateDist::3               136091019      3.45%     99.00% # Number of instructions fetched each cycle (Total)
system.cpu0.fetch.rateDist::4                21272714      0.54%     99.54% # Number of instructions fetched each cycle (Total)
system.cpu0.fetch.rateDist::5                13740240      0.35%     99.89% # Number of instructions fetched each cycle (Total)
system.cpu0.fetch.rateDist::6                  623707      0.02%     99.90% # Number of instructions fetched each cycle (Total)
system.cpu0.fetch.rateDist::7                 3809487      0.10%    100.00% # Number of instructions fetched each cycle (Total)
system.cpu0.fetch.rateDist::8                    6070      0.00%    100.00% # Number of instructions fetched each cycle (Total)
system.cpu0.fetch.rateDist::overflows               0      0.00%    100.00% # Number of instructions fetched each cycle (Total)
system.cpu0.fetch.rateDist::min_value               0                       # Number of instructions fetched each cycle (Total)
system.cpu0.fetch.rateDist::max_value               8                       # Number of instructions fetched each cycle (Total)
system.cpu0.fetch.rateDist::total          3941253584                       # Number of instructions fetched each cycle (Total)
system.cpu0.fp_regfile_reads                       56                       # number of floating regfile reads
system.cpu0.fp_regfile_writes                      33                       # number of floating regfile writes
system.cpu0.idleCycles                      417564379                       # Total number of cycles that the CPU has spent unscheduled due to idling
system.cpu0.iew.branchMispredicts            13931434                       # Number of branch mispredicts detected at execute
system.cpu0.iew.exec_branches               579831993                       # Number of branches executed
system.cpu0.iew.exec_nop                            0                       # number of nop insts executed
system.cpu0.iew.exec_rate                    0.554333                       # Inst execution rate
system.cpu0.iew.exec_refs                  1075282054                       # number of memory reference insts executed
system.cpu0.iew.exec_stores                 296989459                       # Number of stores executed
system.cpu0.iew.exec_swp                            0                       # number of swp insts executed
system.cpu0.iew.iewBlockCycles              592567787                       # Number of cycles IEW is blocking
system.cpu0.iew.iewDispLoadInsts            773597574                       # Number of dispatched load instructions
system.cpu0.iew.iewDispNonSpecInsts           3811784                       # Number of dispatched non-speculative instructions
system.cpu0.iew.iewDispSquashedInsts          6901069                       # Number of squashed instructions skipped by dispatch
system.cpu0.iew.iewDispStoreInsts           299413472                       # Number of dispatched store instructions
system.cpu0.iew.iewDispatchedInsts         2428331420                       # Number of instructions dispatched to IQ
system.cpu0.iew.iewExecLoadInsts            778292595                       # Number of load instructions executed
system.cpu0.iew.iewExecSquashedInsts          7490776                       # Number of squashed instructions skipped in execute
system.cpu0.iew.iewExecutedInsts           2416237438                       # Number of executed instructions
system.cpu0.iew.iewIQFullEvents               3600831                       # Number of times the IQ has become full, causing a stall
system.cpu0.iew.iewIdleCycles                       0                       # Number of cycles IEW is idle
system.cpu0.iew.iewLSQFullEvents             13230190                       # Number of times the LSQ has become full, causing a stall
system.cpu0.iew.iewSquashCycles              13751863                       # Number of cycles IEW is squashing
system.cpu0.iew.iewUnblockCycles             21074828                       # Number of cycles IEW is unblocking
system.cpu0.iew.lsq.thread0.blockedLoads            0                       # Number of blocked loads due to partial load-store forwarding
system.cpu0.iew.lsq.thread0.cacheBlocked       221062                       # Number of times an access to memory failed due to the cache being blocked
system.cpu0.iew.lsq.thread0.forwLoads        46409386                       # Number of loads that had data forwarded from stores
system.cpu0.iew.lsq.thread0.ignoredResponses        69345                       # Number of memory responses ignored because the instruction is squashed
system.cpu0.iew.lsq.thread0.invAddrLoads            0                       # Number of loads ignored due to an invalid address
system.cpu0.iew.lsq.thread0.invAddrSwpfs            0                       # Number of software prefetches ignored due to an invalid address
system.cpu0.iew.lsq.thread0.memOrderViolation        26207                       # Number of memory ordering violations
system.cpu0.iew.lsq.thread0.rescheduledLoads     15300293                       # Number of loads that were rescheduled
system.cpu0.iew.lsq.thread0.squashedLoads     82016919                       # Number of loads squashed
system.cpu0.iew.lsq.thread0.squashedStores     30826340                       # Number of stores squashed
system.cpu0.iew.memOrderViolationEvents         26207                       # Number of memory order violations
system.cpu0.iew.predictedNotTakenIncorrect      1978467                       # Number of branches that were predicted not taken incorrectly
system.cpu0.iew.predictedTakenIncorrect      11952967                       # Number of branches that were predicted taken incorrectly
system.cpu0.iew.wb_consumers               1016879256                       # num instructions consuming a value
system.cpu0.iew.wb_count                   2393859348                       # cumulative count of insts written-back
system.cpu0.iew.wb_fanout                    0.855489                       # average fanout of values written-back
system.cpu0.iew.wb_producers                869928904                       # num instructions producing a value
system.cpu0.iew.wb_rate                      0.549199                       # insts written-back per cycle
system.cpu0.iew.wb_sent                    2394153100                       # cumulative count of insts sent to commit
system.cpu0.int_regfile_reads              2946062847                       # number of integer regfile reads
system.cpu0.int_regfile_writes             1534283007                       # number of integer regfile writes
system.cpu0.ipc                              0.510460                       # IPC: Instructions Per Cycle
system.cpu0.ipc_total                        0.510460                       # IPC: Total IPC of All Threads
system.cpu0.iq.FU_type_0::No_OpClass          7611890      0.31%      0.31% # Type of FU issued
system.cpu0.iq.FU_type_0::IntAlu           1316710997     54.33%     54.64% # Type of FU issued
system.cpu0.iq.FU_type_0::IntMult            18332153      0.76%     55.40% # Type of FU issued
system.cpu0.iq.FU_type_0::IntDiv              3802525      0.16%     55.55% # Type of FU issued
system.cpu0.iq.FU_type_0::FloatAdd                  0      0.00%     55.55% # Type of FU issued
system.cpu0.iq.FU_type_0::FloatCmp                  6      0.00%     55.55% # Type of FU issued
system.cpu0.iq.FU_type_0::FloatCvt                 16      0.00%     55.55% # Type of FU issued
system.cpu0.iq.FU_type_0::FloatMult                 0      0.00%     55.55% # Type of FU issued
system.cpu0.iq.FU_type_0::FloatMultAcc              0      0.00%     55.55% # Type of FU issued
system.cpu0.iq.FU_type_0::FloatDiv                  2      0.00%     55.55% # Type of FU issued
system.cpu0.iq.FU_type_0::FloatMisc                 6      0.00%     55.55% # Type of FU issued
system.cpu0.iq.FU_type_0::FloatSqrt                 0      0.00%     55.55% # Type of FU issued
system.cpu0.iq.FU_type_0::SimdAdd                   0      0.00%     55.55% # Type of FU issued
system.cpu0.iq.FU_type_0::SimdAddAcc                0      0.00%     55.55% # Type of FU issued
system.cpu0.iq.FU_type_0::SimdAlu                   0      0.00%     55.55% # Type of FU issued
system.cpu0.iq.FU_type_0::SimdCmp                   0      0.00%     55.55% # Type of FU issued
system.cpu0.iq.FU_type_0::SimdCvt                   0      0.00%     55.55% # Type of FU issued
system.cpu0.iq.FU_type_0::SimdMisc                  0      0.00%     55.55% # Type of FU issued
system.cpu0.iq.FU_type_0::SimdMult                  0      0.00%     55.55% # Type of FU issued
system.cpu0.iq.FU_type_0::SimdMultAcc               0      0.00%     55.55% # Type of FU issued
system.cpu0.iq.FU_type_0::SimdShift                 0      0.00%     55.55% # Type of FU issued
system.cpu0.iq.FU_type_0::SimdShiftAcc              0      0.00%     55.55% # Type of FU issued
system.cpu0.iq.FU_type_0::SimdDiv                   0      0.00%     55.55% # Type of FU issued
system.cpu0.iq.FU_type_0::SimdSqrt                  0      0.00%     55.55% # Type of FU issued
system.cpu0.iq.FU_type_0::SimdFloatAdd              0      0.00%     55.55% # Type of FU issued
system.cpu0.iq.FU_type_0::SimdFloatAlu              0      0.00%     55.55% # Type of FU issued
system.cpu0.iq.FU_type_0::SimdFloatCmp              0      0.00%     55.55% # Type of FU issued
system.cpu0.iq.FU_type_0::SimdFloatCvt              0      0.00%     55.55% # Type of FU issued
system.cpu0.iq.FU_type_0::SimdFloatDiv              0      0.00%     55.55% # Type of FU issued
system.cpu0.iq.FU_type_0::SimdFloatMisc             0      0.00%     55.55% # Type of FU issued
system.cpu0.iq.FU_type_0::SimdFloatMult             0      0.00%     55.55% # Type of FU issued
system.cpu0.iq.FU_type_0::SimdFloatMultAcc            0      0.00%     55.55% # Type of FU issued
system.cpu0.iq.FU_type_0::SimdFloatSqrt             0      0.00%     55.55% # Type of FU issued
system.cpu0.iq.FU_type_0::SimdReduceAdd             0      0.00%     55.55% # Type of FU issued
system.cpu0.iq.FU_type_0::SimdReduceAlu             0      0.00%     55.55% # Type of FU issued
system.cpu0.iq.FU_type_0::SimdReduceCmp             0      0.00%     55.55% # Type of FU issued
system.cpu0.iq.FU_type_0::SimdFloatReduceAdd            0      0.00%     55.55% # Type of FU issued
system.cpu0.iq.FU_type_0::SimdFloatReduceCmp            0      0.00%     55.55% # Type of FU issued
system.cpu0.iq.FU_type_0::SimdAes                   0      0.00%     55.55% # Type of FU issued
system.cpu0.iq.FU_type_0::SimdAesMix                0      0.00%     55.55% # Type of FU issued
system.cpu0.iq.FU_type_0::SimdSha1Hash              0      0.00%     55.55% # Type of FU issued
system.cpu0.iq.FU_type_0::SimdSha1Hash2             0      0.00%     55.55% # Type of FU issued
system.cpu0.iq.FU_type_0::SimdSha256Hash            0      0.00%     55.55% # Type of FU issued
system.cpu0.iq.FU_type_0::SimdSha256Hash2            0      0.00%     55.55% # Type of FU issued
system.cpu0.iq.FU_type_0::SimdShaSigma2             0      0.00%     55.55% # Type of FU issued
system.cpu0.iq.FU_type_0::SimdShaSigma3             0      0.00%     55.55% # Type of FU issued
system.cpu0.iq.FU_type_0::SimdPredAlu               0      0.00%     55.55% # Type of FU issued
system.cpu0.iq.FU_type_0::MemRead           783585566     32.33%     87.88% # Type of FU issued
system.cpu0.iq.FU_type_0::MemWrite          293685013     12.12%    100.00% # Type of FU issued
system.cpu0.iq.FU_type_0::FloatMemRead             18      0.00%    100.00% # Type of FU issued
system.cpu0.iq.FU_type_0::FloatMemWrite            23      0.00%    100.00% # Type of FU issued
system.cpu0.iq.FU_type_0::IprAccess                 0      0.00%    100.00% # Type of FU issued
system.cpu0.iq.FU_type_0::InstPrefetch              0      0.00%    100.00% # Type of FU issued
system.cpu0.iq.FU_type_0::total            2423728215                       # Type of FU issued
system.cpu0.iq.fp_alu_accesses                     74                       # Number of floating point alu accesses
system.cpu0.iq.fp_inst_queue_reads                145                       # Number of floating instruction queue reads
system.cpu0.iq.fp_inst_queue_wakeup_accesses           67                       # Number of floating instruction queue wakeup accesses
system.cpu0.iq.fp_inst_queue_writes               131                       # Number of floating instruction queue writes
system.cpu0.iq.fu_busy_cnt                    4825651                       # FU busy when requested
system.cpu0.iq.fu_busy_rate                  0.001991                       # FU busy rate (busy events/executed inst)
system.cpu0.iq.fu_full::No_OpClass                  0      0.00%      0.00% # attempts to use FU when none available
system.cpu0.iq.fu_full::IntAlu                 855101     17.72%     17.72% # attempts to use FU when none available
system.cpu0.iq.fu_full::IntMult                     0      0.00%     17.72% # attempts to use FU when none available
system.cpu0.iq.fu_full::IntDiv                      0      0.00%     17.72% # attempts to use FU when none available
system.cpu0.iq.fu_full::FloatAdd                    0      0.00%     17.72% # attempts to use FU when none available
system.cpu0.iq.fu_full::FloatCmp                    0      0.00%     17.72% # attempts to use FU when none available
system.cpu0.iq.fu_full::FloatCvt                    0      0.00%     17.72% # attempts to use FU when none available
system.cpu0.iq.fu_full::FloatMult                   0      0.00%     17.72% # attempts to use FU when none available
system.cpu0.iq.fu_full::FloatMultAcc                0      0.00%     17.72% # attempts to use FU when none available
system.cpu0.iq.fu_full::FloatDiv                    0      0.00%     17.72% # attempts to use FU when none available
system.cpu0.iq.fu_full::FloatMisc                   0      0.00%     17.72% # attempts to use FU when none available
system.cpu0.iq.fu_full::FloatSqrt                   0      0.00%     17.72% # attempts to use FU when none available
system.cpu0.iq.fu_full::SimdAdd                     0      0.00%     17.72% # attempts to use FU when none available
system.cpu0.iq.fu_full::SimdAddAcc                  0      0.00%     17.72% # attempts to use FU when none available
system.cpu0.iq.fu_full::SimdAlu                     0      0.00%     17.72% # attempts to use FU when none available
system.cpu0.iq.fu_full::SimdCmp                     0      0.00%     17.72% # attempts to use FU when none available
system.cpu0.iq.fu_full::SimdCvt                     0      0.00%     17.72% # attempts to use FU when none available
system.cpu0.iq.fu_full::SimdMisc                    0      0.00%     17.72% # attempts to use FU when none available
system.cpu0.iq.fu_full::SimdMult                    0      0.00%     17.72% # attempts to use FU when none available
system.cpu0.iq.fu_full::SimdMultAcc                 0      0.00%     17.72% # attempts to use FU when none available
system.cpu0.iq.fu_full::SimdShift                   0      0.00%     17.72% # attempts to use FU when none available
system.cpu0.iq.fu_full::SimdShiftAcc                0      0.00%     17.72% # attempts to use FU when none available
system.cpu0.iq.fu_full::SimdDiv                     0      0.00%     17.72% # attempts to use FU when none available
system.cpu0.iq.fu_full::SimdSqrt                    0      0.00%     17.72% # attempts to use FU when none available
system.cpu0.iq.fu_full::SimdFloatAdd                0      0.00%     17.72% # attempts to use FU when none available
system.cpu0.iq.fu_full::SimdFloatAlu                0      0.00%     17.72% # attempts to use FU when none available
system.cpu0.iq.fu_full::SimdFloatCmp                0      0.00%     17.72% # attempts to use FU when none available
system.cpu0.iq.fu_full::SimdFloatCvt                0      0.00%     17.72% # attempts to use FU when none available
system.cpu0.iq.fu_full::SimdFloatDiv                0      0.00%     17.72% # attempts to use FU when none available
system.cpu0.iq.fu_full::SimdFloatMisc               0      0.00%     17.72% # attempts to use FU when none available
system.cpu0.iq.fu_full::SimdFloatMult               0      0.00%     17.72% # attempts to use FU when none available
system.cpu0.iq.fu_full::SimdFloatMultAcc            0      0.00%     17.72% # attempts to use FU when none available
system.cpu0.iq.fu_full::SimdFloatSqrt               0      0.00%     17.72% # attempts to use FU when none available
system.cpu0.iq.fu_full::SimdReduceAdd               0      0.00%     17.72% # attempts to use FU when none available
system.cpu0.iq.fu_full::SimdReduceAlu               0      0.00%     17.72% # attempts to use FU when none available
system.cpu0.iq.fu_full::SimdReduceCmp               0      0.00%     17.72% # attempts to use FU when none available
system.cpu0.iq.fu_full::SimdFloatReduceAdd            0      0.00%     17.72% # attempts to use FU when none available
system.cpu0.iq.fu_full::SimdFloatReduceCmp            0      0.00%     17.72% # attempts to use FU when none available
system.cpu0.iq.fu_full::SimdAes                     0      0.00%     17.72% # attempts to use FU when none available
system.cpu0.iq.fu_full::SimdAesMix                  0      0.00%     17.72% # attempts to use FU when none available
system.cpu0.iq.fu_full::SimdSha1Hash                0      0.00%     17.72% # attempts to use FU when none available
system.cpu0.iq.fu_full::SimdSha1Hash2               0      0.00%     17.72% # attempts to use FU when none available
system.cpu0.iq.fu_full::SimdSha256Hash              0      0.00%     17.72% # attempts to use FU when none available
system.cpu0.iq.fu_full::SimdSha256Hash2             0      0.00%     17.72% # attempts to use FU when none available
system.cpu0.iq.fu_full::SimdShaSigma2               0      0.00%     17.72% # attempts to use FU when none available
system.cpu0.iq.fu_full::SimdShaSigma3               0      0.00%     17.72% # attempts to use FU when none available
system.cpu0.iq.fu_full::SimdPredAlu                 0      0.00%     17.72% # attempts to use FU when none available
system.cpu0.iq.fu_full::MemRead               3401500     70.49%     88.21% # attempts to use FU when none available
system.cpu0.iq.fu_full::MemWrite               569047     11.79%    100.00% # attempts to use FU when none available
system.cpu0.iq.fu_full::FloatMemRead                0      0.00%    100.00% # attempts to use FU when none available
system.cpu0.iq.fu_full::FloatMemWrite               3      0.00%    100.00% # attempts to use FU when none available
system.cpu0.iq.fu_full::IprAccess                   0      0.00%    100.00% # attempts to use FU when none available
system.cpu0.iq.fu_full::InstPrefetch                0      0.00%    100.00% # attempts to use FU when none available
system.cpu0.iq.int_alu_accesses            2420941902                       # Number of integer alu accesses
system.cpu0.iq.int_inst_queue_reads        8793805221                       # Number of integer instruction queue reads
system.cpu0.iq.int_inst_queue_wakeup_accesses   2393859281                       # Number of integer instruction queue wakeup accesses
system.cpu0.iq.int_inst_queue_writes       2627878807                       # Number of integer instruction queue writes
system.cpu0.iq.iqInstsAdded                2416910276                       # Number of instructions added to the IQ (excludes non-spec)
system.cpu0.iq.iqInstsIssued               2423728215                       # Number of instructions issued
system.cpu0.iq.iqNonSpecInstsAdded           11421144                       # Number of non-speculative instructions added to the IQ
system.cpu0.iq.iqSquashedInstsExamined      199522850                       # Number of squashed instructions iterated over during squash; mainly for profiling
system.cpu0.iq.iqSquashedInstsIssued           269702                       # Number of squashed instructions issued
system.cpu0.iq.iqSquashedNonSpecRemoved          1541                       # Number of squashed non-spec instructions that were removed
system.cpu0.iq.iqSquashedOperandsExamined     34819970                       # Number of squashed operands that are examined and possibly removed from graph
system.cpu0.iq.issued_per_cycle::samples   3941253584                       # Number of insts issued each cycle
system.cpu0.iq.issued_per_cycle::mean        0.614964                       # Number of insts issued each cycle
system.cpu0.iq.issued_per_cycle::stdev       0.814606                       # Number of insts issued each cycle
system.cpu0.iq.issued_per_cycle::underflows            0      0.00%      0.00% # Number of insts issued each cycle
system.cpu0.iq.issued_per_cycle::0         2180290499     55.32%     55.32% # Number of insts issued each cycle
system.cpu0.iq.issued_per_cycle::1         1228065958     31.16%     86.48% # Number of insts issued each cycle
system.cpu0.iq.issued_per_cycle::2          435182087     11.04%     97.52% # Number of insts issued each cycle
system.cpu0.iq.issued_per_cycle::3           77135904      1.96%     99.48% # Number of insts issued each cycle
system.cpu0.iq.issued_per_cycle::4           12366861      0.31%     99.79% # Number of insts issued each cycle
system.cpu0.iq.issued_per_cycle::5            5912259      0.15%     99.94% # Number of insts issued each cycle
system.cpu0.iq.issued_per_cycle::6            1518913      0.04%     99.98% # Number of insts issued each cycle
system.cpu0.iq.issued_per_cycle::7             500670      0.01%     99.99% # Number of insts issued each cycle
system.cpu0.iq.issued_per_cycle::8             280433      0.01%    100.00% # Number of insts issued each cycle
system.cpu0.iq.issued_per_cycle::overflows            0      0.00%    100.00% # Number of insts issued each cycle
system.cpu0.iq.issued_per_cycle::min_value            0                       # Number of insts issued each cycle
system.cpu0.iq.issued_per_cycle::max_value            8                       # Number of insts issued each cycle
system.cpu0.iq.issued_per_cycle::total     3941253584                       # Number of insts issued each cycle
system.cpu0.iq.rate                          0.556052                       # Inst issue rate
system.cpu0.iq.vec_alu_accesses                     0                       # Number of vector alu accesses
system.cpu0.iq.vec_inst_queue_reads                 0                       # Number of vector instruction queue reads
system.cpu0.iq.vec_inst_queue_wakeup_accesses            0                       # Number of vector instruction queue wakeup accesses
system.cpu0.iq.vec_inst_queue_writes                0                       # Number of vector instruction queue writes
system.cpu0.itb.accesses                            0                       # DTB accesses
system.cpu0.itb.hits                                0                       # DTB hits
system.cpu0.itb.misses                              0                       # DTB misses
system.cpu0.itb.read_accesses                       0                       # DTB read accesses
system.cpu0.itb.read_hits                           0                       # DTB read hits
system.cpu0.itb.read_misses                         0                       # DTB read misses
system.cpu0.itb.write_accesses                      0                       # DTB write accesses
system.cpu0.itb.write_hits                          0                       # DTB write hits
system.cpu0.itb.write_misses                        0                       # DTB write misses
system.cpu0.memDep0.conflictingLoads         34089231                       # Number of conflicting loads.
system.cpu0.memDep0.conflictingStores         6002134                       # Number of conflicting stores.
system.cpu0.memDep0.insertedLoads           773597574                       # Number of loads inserted to the mem dependence unit.
system.cpu0.memDep0.insertedStores          299413472                       # Number of stores inserted to the mem dependence unit.
system.cpu0.misc_regfile_reads                   2926                       # number of misc regfile reads
system.cpu0.misc_regfile_writes                    30                       # number of misc regfile writes
system.cpu0.numCycles                      4358817963                       # number of cpu cycles simulated
system.cpu0.numWorkItemsCompleted                   0                       # number of work items this cpu completed
system.cpu0.numWorkItemsStarted                     0                       # number of work items this cpu started
system.cpu0.quiesceCycles                     6083997                       # Total number of cycles that CPU has spent quiesced or waiting for an interrupt
system.cpu0.rename.BlockCycles              641258744                       # Number of cycles rename is blocking
system.cpu0.rename.CommittedMaps           1421461394                       # Number of HB maps that are committed
system.cpu0.rename.IQFullEvents              25374642                       # Number of times rename has blocked due to IQ full
system.cpu0.rename.IdleCycles              1487036824                       # Number of cycles rename is idle
system.cpu0.rename.LQFullEvents              27212638                       # Number of times rename has blocked due to LQ full
system.cpu0.rename.ROBFullEvents                60955                       # Number of times rename has blocked due to ROB full
system.cpu0.rename.RenameLookups           2985567542                       # Number of register rename lookups that rename has made
system.cpu0.rename.RenamedInsts            2444620103                       # Number of instructions processed by rename
system.cpu0.rename.RenamedOperands         1573738956                       # Number of destination operands rename has renamed
system.cpu0.rename.RunCycles               1719173976                       # Number of cycles rename is running
system.cpu0.rename.SQFullEvents              25919382                       # Number of times rename has blocked due to SQ full
system.cpu0.rename.SquashCycles              13751863                       # Number of cycles rename is squashing
system.cpu0.rename.UnblockCycles             79435065                       # Number of cycles rename is unblocking
system.cpu0.rename.UndoneMaps               152277557                       # Number of HB maps that are undone due to squashing
system.cpu0.rename.fp_rename_lookups               56                       # Number of floating rename lookups
system.cpu0.rename.int_rename_lookups      2985567486                       # Number of integer rename lookups
system.cpu0.rename.serializeStallCycles        597112                       # count of cycles rename stalled for serializing inst
system.cpu0.rename.serializingInsts              8937                       # count of serializing insts renamed
system.cpu0.rename.skidInsts                 52156149                       # count of insts added to the skid buffer
system.cpu0.rename.tempSerializingInsts          8936                       # count of temporary serializing insts renamed
system.cpu0.rob.rob_reads                  6259783138                       # The number of ROB reads
system.cpu0.rob.rob_writes                 4889930902                       # The number of ROB writes
system.cpu0.timesIdled                       45503662                       # Number of times that the entire CPU went into an idle state and unscheduled itself
system.cpu0.workload.numSyscalls                 2882                       # Number of system calls
system.cpu1.branchPred.BTBCorrect                   0                       # Number of correct BTB predictions (this stat may not work properly.
system.cpu1.branchPred.BTBHitPct            93.518187                       # BTB Hit Percentage
system.cpu1.branchPred.BTBHits               17988746                       # Number of BTB hits
system.cpu1.branchPred.BTBLookups            19235559                       # Number of BTB lookups
system.cpu1.branchPred.RASInCorrect                 0                       # Number of incorrect RAS predictions.
system.cpu1.branchPred.condIncorrect          1772843                       # Number of conditional branches incorrect
system.cpu1.branchPred.condPredicted         32560053                       # Number of conditional branches predicted
system.cpu1.branchPred.indirectHits            921157                       # Number of indirect target hits.
system.cpu1.branchPred.indirectLookups         930951                       # Number of indirect predictor lookups.
system.cpu1.branchPred.indirectMisses            9794                       # Number of indirect misses.
system.cpu1.branchPred.lookups               35736358                       # Number of BP lookups
system.cpu1.branchPred.usedRAS                      0                       # Number of times the RAS was used to get a target.
system.cpu1.branchPredindirectMispredicted        46691                       # Number of mispredicted indirect branches.
system.cpu1.commit.amos                       3801573                       # Number of atomic instructions committed
system.cpu1.commit.branchMispredicts          1366787                       # The number of times a branch was mispredicted
system.cpu1.commit.branches                  29521301                       # Number of branches committed
system.cpu1.commit.bw_lim_events              3434141                       # number cycles where commit BW limit reached
system.cpu1.commit.commitNonSpecStalls       11405417                       # The number of times commit has been forced to stall to communicate backwards
system.cpu1.commit.commitSquashedInsts       14841617                       # The number of squashed insts skipped by commit
system.cpu1.commit.committedInsts           130088161                       # Number of instructions committed
system.cpu1.commit.committedOps             133889915                       # Number of ops (including micro ops) committed
system.cpu1.commit.committed_per_cycle::samples    682950172                       # Number of insts commited each cycle
system.cpu1.commit.committed_per_cycle::mean     0.196046                       # Number of insts commited each cycle
system.cpu1.commit.committed_per_cycle::stdev     0.883770                       # Number of insts commited each cycle
system.cpu1.commit.committed_per_cycle::underflows            0      0.00%      0.00% # Number of insts commited each cycle
system.cpu1.commit.committed_per_cycle::0    628907206     92.09%     92.09% # Number of insts commited each cycle
system.cpu1.commit.committed_per_cycle::1     26579937      3.89%     95.98% # Number of insts commited each cycle
system.cpu1.commit.committed_per_cycle::2      8159279      1.19%     97.17% # Number of insts commited each cycle
system.cpu1.commit.committed_per_cycle::3      8753238      1.28%     98.46% # Number of insts commited each cycle
system.cpu1.commit.committed_per_cycle::4      2483307      0.36%     98.82% # Number of insts commited each cycle
system.cpu1.commit.committed_per_cycle::5       755870      0.11%     98.93% # Number of insts commited each cycle
system.cpu1.commit.committed_per_cycle::6      3594358      0.53%     99.46% # Number of insts commited each cycle
system.cpu1.commit.committed_per_cycle::7       282836      0.04%     99.50% # Number of insts commited each cycle
system.cpu1.commit.committed_per_cycle::8      3434141      0.50%    100.00% # Number of insts commited each cycle
system.cpu1.commit.committed_per_cycle::overflows            0      0.00%    100.00% # Number of insts commited each cycle
system.cpu1.commit.committed_per_cycle::min_value            0                       # Number of insts commited each cycle
system.cpu1.commit.committed_per_cycle::max_value            8                       # Number of insts commited each cycle
system.cpu1.commit.committed_per_cycle::total    682950172                       # Number of insts commited each cycle
system.cpu1.commit.fp_insts                        12                       # Number of committed floating point instructions.
system.cpu1.commit.function_calls             1457675                       # Number of function calls committed.
system.cpu1.commit.int_insts                125293789                       # Number of committed integer instructions.
system.cpu1.commit.loads                     36893291                       # Number of loads committed
system.cpu1.commit.membars                    7603266                       # Number of memory barriers committed
system.cpu1.commit.op_class_0::No_OpClass      7603266      5.68%      5.68% # Class of committed instruction
system.cpu1.commit.op_class_0::IntAlu        77466039     57.86%     63.54% # Class of committed instruction
system.cpu1.commit.op_class_0::IntMult             44      0.00%     63.54% # Class of committed instruction
system.cpu1.commit.op_class_0::IntDiv              88      0.00%     63.54% # Class of committed instruction
system.cpu1.commit.op_class_0::FloatAdd             0      0.00%     63.54% # Class of committed instruction
system.cpu1.commit.op_class_0::FloatCmp             0      0.00%     63.54% # Class of committed instruction
system.cpu1.commit.op_class_0::FloatCvt             0      0.00%     63.54% # Class of committed instruction
system.cpu1.commit.op_class_0::FloatMult            0      0.00%     63.54% # Class of committed instruction
system.cpu1.commit.op_class_0::FloatMultAcc            0      0.00%     63.54% # Class of committed instruction
system.cpu1.commit.op_class_0::FloatDiv             0      0.00%     63.54% # Class of committed instruction
system.cpu1.commit.op_class_0::FloatMisc            0      0.00%     63.54% # Class of committed instruction
system.cpu1.commit.op_class_0::FloatSqrt            0      0.00%     63.54% # Class of committed instruction
system.cpu1.commit.op_class_0::SimdAdd              0      0.00%     63.54% # Class of committed instruction
system.cpu1.commit.op_class_0::SimdAddAcc            0      0.00%     63.54% # Class of committed instruction
system.cpu1.commit.op_class_0::SimdAlu              0      0.00%     63.54% # Class of committed instruction
system.cpu1.commit.op_class_0::SimdCmp              0      0.00%     63.54% # Class of committed instruction
system.cpu1.commit.op_class_0::SimdCvt              0      0.00%     63.54% # Class of committed instruction
system.cpu1.commit.op_class_0::SimdMisc             0      0.00%     63.54% # Class of committed instruction
system.cpu1.commit.op_class_0::SimdMult             0      0.00%     63.54% # Class of committed instruction
system.cpu1.commit.op_class_0::SimdMultAcc            0      0.00%     63.54% # Class of committed instruction
system.cpu1.commit.op_class_0::SimdShift            0      0.00%     63.54% # Class of committed instruction
system.cpu1.commit.op_class_0::SimdShiftAcc            0      0.00%     63.54% # Class of committed instruction
system.cpu1.commit.op_class_0::SimdDiv              0      0.00%     63.54% # Class of committed instruction
system.cpu1.commit.op_class_0::SimdSqrt             0      0.00%     63.54% # Class of committed instruction
system.cpu1.commit.op_class_0::SimdFloatAdd            0      0.00%     63.54% # Class of committed instruction
system.cpu1.commit.op_class_0::SimdFloatAlu            0      0.00%     63.54% # Class of committed instruction
system.cpu1.commit.op_class_0::SimdFloatCmp            0      0.00%     63.54% # Class of committed instruction
system.cpu1.commit.op_class_0::SimdFloatCvt            0      0.00%     63.54% # Class of committed instruction
system.cpu1.commit.op_class_0::SimdFloatDiv            0      0.00%     63.54% # Class of committed instruction
system.cpu1.commit.op_class_0::SimdFloatMisc            0      0.00%     63.54% # Class of committed instruction
system.cpu1.commit.op_class_0::SimdFloatMult            0      0.00%     63.54% # Class of committed instruction
system.cpu1.commit.op_class_0::SimdFloatMultAcc            0      0.00%     63.54% # Class of committed instruction
system.cpu1.commit.op_class_0::SimdFloatSqrt            0      0.00%     63.54% # Class of committed instruction
system.cpu1.commit.op_class_0::SimdReduceAdd            0      0.00%     63.54% # Class of committed instruction
system.cpu1.commit.op_class_0::SimdReduceAlu            0      0.00%     63.54% # Class of committed instruction
system.cpu1.commit.op_class_0::SimdReduceCmp            0      0.00%     63.54% # Class of committed instruction
system.cpu1.commit.op_class_0::SimdFloatReduceAdd            0      0.00%     63.54% # Class of committed instruction
system.cpu1.commit.op_class_0::SimdFloatReduceCmp            0      0.00%     63.54% # Class of committed instruction
system.cpu1.commit.op_class_0::SimdAes              0      0.00%     63.54% # Class of committed instruction
system.cpu1.commit.op_class_0::SimdAesMix            0      0.00%     63.54% # Class of committed instruction
system.cpu1.commit.op_class_0::SimdSha1Hash            0      0.00%     63.54% # Class of committed instruction
system.cpu1.commit.op_class_0::SimdSha1Hash2            0      0.00%     63.54% # Class of committed instruction
system.cpu1.commit.op_class_0::SimdSha256Hash            0      0.00%     63.54% # Class of committed instruction
system.cpu1.commit.op_class_0::SimdSha256Hash2            0      0.00%     63.54% # Class of committed instruction
system.cpu1.commit.op_class_0::SimdShaSigma2            0      0.00%     63.54% # Class of committed instruction
system.cpu1.commit.op_class_0::SimdShaSigma3            0      0.00%     63.54% # Class of committed instruction
system.cpu1.commit.op_class_0::SimdPredAlu            0      0.00%     63.54% # Class of committed instruction
system.cpu1.commit.op_class_0::MemRead       40694864     30.39%     93.93% # Class of committed instruction
system.cpu1.commit.op_class_0::MemWrite       8125602      6.07%    100.00% # Class of committed instruction
system.cpu1.commit.op_class_0::FloatMemRead            0      0.00%    100.00% # Class of committed instruction
system.cpu1.commit.op_class_0::FloatMemWrite           12      0.00%    100.00% # Class of committed instruction
system.cpu1.commit.op_class_0::IprAccess            0      0.00%    100.00% # Class of committed instruction
system.cpu1.commit.op_class_0::InstPrefetch            0      0.00%    100.00% # Class of committed instruction
system.cpu1.commit.op_class_0::total        133889915                       # Class of committed instruction
system.cpu1.commit.refs                      48820478                       # Number of memory references committed
system.cpu1.commit.swp_count                        0                       # Number of s/w prefetches committed
system.cpu1.commit.vec_insts                        0                       # Number of committed Vector instructions.
system.cpu1.committedInsts                  130088161                       # Number of Instructions Simulated
system.cpu1.committedOps                    133889915                       # Number of Ops (including micro ops) Simulated
system.cpu1.cpi                              5.284129                       # CPI: Cycles Per Instruction
system.cpu1.cpi_total                        5.284129                       # CPI: Total CPI of All Threads
system.cpu1.decode.BlockedCycles            606450590                       # Number of cycles decode is blocked
system.cpu1.decode.BranchMispred               421902                       # Number of times decode detected a branch misprediction
system.cpu1.decode.BranchResolved            17262331                       # Number of times decode resolved a branch
system.cpu1.decode.DecodedInsts             154606270                       # Number of instructions handled by decode
system.cpu1.decode.IdleCycles                18996274                       # Number of cycles decode is idle
system.cpu1.decode.RunCycles                 50180425                       # Number of cycles decode is running
system.cpu1.decode.SquashCycles               1368408                       # Number of cycles decode is squashing
system.cpu1.decode.SquashedInsts              1073510                       # Number of squashed instructions handled by decode
system.cpu1.decode.UnblockCycles              8732359                       # Number of cycles decode is unblocking
system.cpu1.dtb.accesses                            0                       # DTB accesses
system.cpu1.dtb.hits                                0                       # DTB hits
system.cpu1.dtb.misses                              0                       # DTB misses
system.cpu1.dtb.read_accesses                       0                       # DTB read accesses
system.cpu1.dtb.read_hits                           0                       # DTB read hits
system.cpu1.dtb.read_misses                         0                       # DTB read misses
system.cpu1.dtb.write_accesses                      0                       # DTB write accesses
system.cpu1.dtb.write_hits                          0                       # DTB write hits
system.cpu1.dtb.write_misses                        0                       # DTB write misses
system.cpu1.fetch.Branches                   35736358                       # Number of branches that fetch encountered
system.cpu1.fetch.CacheLines                 19249148                       # Number of cache lines fetched
system.cpu1.fetch.Cycles                    663134039                       # Number of cycles fetch has run and was not squashing or blocked
system.cpu1.fetch.IcacheSquashes               209324                       # Number of outstanding Icache misses that were squashed
system.cpu1.fetch.Insts                     155707201                       # Number of instructions fetch has processed
system.cpu1.fetch.MiscStallCycles                   1                       # Number of cycles fetch has spent waiting on interrupts, or bad addresses, or out of MSHRs
system.cpu1.fetch.SquashCycles                3548928                       # Number of cycles fetch has spent squashing
system.cpu1.fetch.branchRate                 0.051988                       # Number of branch fetches per cycle
system.cpu1.fetch.icacheStallCycles          20819552                       # Number of cycles fetch is stalled on an Icache miss
system.cpu1.fetch.predictedBranches          18909903                       # Number of branches that fetch has predicted taken
system.cpu1.fetch.rate                       0.226515                       # Number of inst fetches per cycle
system.cpu1.fetch.rateDist::samples         685728056                       # Number of instructions fetched each cycle (Total)
system.cpu1.fetch.rateDist::mean             0.232613                       # Number of instructions fetched each cycle (Total)
system.cpu1.fetch.rateDist::stdev            0.680478                       # Number of instructions fetched each cycle (Total)
system.cpu1.fetch.rateDist::underflows              0      0.00%      0.00% # Number of instructions fetched each cycle (Total)
system.cpu1.fetch.rateDist::0               589552996     85.97%     85.97% # Number of instructions fetched each cycle (Total)
system.cpu1.fetch.rateDist::1                56256099      8.20%     94.18% # Number of instructions fetched each cycle (Total)
system.cpu1.fetch.rateDist::2                24137954      3.52%     97.70% # Number of instructions fetched each cycle (Total)
system.cpu1.fetch.rateDist::3                10468801      1.53%     99.23% # Number of instructions fetched each cycle (Total)
system.cpu1.fetch.rateDist::4                 3843972      0.56%     99.79% # Number of instructions fetched each cycle (Total)
system.cpu1.fetch.rateDist::5                  614839      0.09%     99.88% # Number of instructions fetched each cycle (Total)
system.cpu1.fetch.rateDist::6                  853080      0.12%    100.00% # Number of instructions fetched each cycle (Total)
system.cpu1.fetch.rateDist::7                     152      0.00%    100.00% # Number of instructions fetched each cycle (Total)
system.cpu1.fetch.rateDist::8                     163      0.00%    100.00% # Number of instructions fetched each cycle (Total)
system.cpu1.fetch.rateDist::overflows               0      0.00%    100.00% # Number of instructions fetched each cycle (Total)
system.cpu1.fetch.rateDist::min_value               0                       # Number of instructions fetched each cycle (Total)
system.cpu1.fetch.rateDist::max_value               8                       # Number of instructions fetched each cycle (Total)
system.cpu1.fetch.rateDist::total           685728056                       # Number of instructions fetched each cycle (Total)
system.cpu1.fp_regfile_reads                       12                       # number of floating regfile reads
system.cpu1.idleCycles                        1674589                       # Total number of cycles that the CPU has spent unscheduled due to idling
system.cpu1.iew.branchMispredicts             1497332                       # Number of branch mispredicts detected at execute
system.cpu1.iew.exec_branches                31527961                       # Number of branches executed
system.cpu1.iew.exec_nop                            0                       # number of nop insts executed
system.cpu1.iew.exec_rate                    0.209738                       # Inst execution rate
system.cpu1.iew.exec_refs                    52049599                       # number of memory reference insts executed
system.cpu1.iew.exec_stores                  12321114                       # Number of stores executed
system.cpu1.iew.exec_swp                            0                       # number of swp insts executed
system.cpu1.iew.iewBlockCycles              520950632                       # Number of cycles IEW is blocking
system.cpu1.iew.iewDispLoadInsts             40189005                       # Number of dispatched load instructions
system.cpu1.iew.iewDispNonSpecInsts           3802257                       # Number of dispatched non-speculative instructions
system.cpu1.iew.iewDispSquashedInsts          1258918                       # Number of squashed instructions skipped by dispatch
system.cpu1.iew.iewDispStoreInsts            12649797                       # Number of dispatched store instructions
system.cpu1.iew.iewDispatchedInsts          148717984                       # Number of instructions dispatched to IQ
system.cpu1.iew.iewExecLoadInsts             39728485                       # Number of load instructions executed
system.cpu1.iew.iewExecSquashedInsts          1415841                       # Number of squashed instructions skipped in execute
system.cpu1.iew.iewExecutedInsts            144174194                       # Number of executed instructions
system.cpu1.iew.iewIQFullEvents               3157498                       # Number of times the IQ has become full, causing a stall
system.cpu1.iew.iewIdleCycles                       0                       # Number of cycles IEW is idle
system.cpu1.iew.iewLSQFullEvents              4177085                       # Number of times the LSQ has become full, causing a stall
system.cpu1.iew.iewSquashCycles               1368408                       # Number of cycles IEW is squashing
system.cpu1.iew.iewUnblockCycles             11754343                       # Number of cycles IEW is unblocking
system.cpu1.iew.lsq.thread0.blockedLoads            0                       # Number of blocked loads due to partial load-store forwarding
system.cpu1.iew.lsq.thread0.cacheBlocked        70369                       # Number of times an access to memory failed due to the cache being blocked
system.cpu1.iew.lsq.thread0.forwLoads         1124789                       # Number of loads that had data forwarded from stores
system.cpu1.iew.lsq.thread0.ignoredResponses        31281                       # Number of memory responses ignored because the instruction is squashed
system.cpu1.iew.lsq.thread0.invAddrLoads            0                       # Number of loads ignored due to an invalid address
system.cpu1.iew.lsq.thread0.invAddrSwpfs            0                       # Number of software prefetches ignored due to an invalid address
system.cpu1.iew.lsq.thread0.memOrderViolation         1990                       # Number of memory ordering violations
system.cpu1.iew.lsq.thread0.rescheduledLoads         4042                       # Number of loads that were rescheduled
system.cpu1.iew.lsq.thread0.squashedLoads      3295714                       # Number of loads squashed
system.cpu1.iew.lsq.thread0.squashedStores       722610                       # Number of stores squashed
system.cpu1.iew.memOrderViolationEvents          1990                       # Number of memory order violations
system.cpu1.iew.predictedNotTakenIncorrect       512917                       # Number of branches that were predicted not taken incorrectly
system.cpu1.iew.predictedTakenIncorrect        984415                       # Number of branches that were predicted taken incorrectly
system.cpu1.iew.wb_consumers                 84957687                       # num instructions consuming a value
system.cpu1.iew.wb_count                    143077368                       # cumulative count of insts written-back
system.cpu1.iew.wb_fanout                    0.847290                       # average fanout of values written-back
system.cpu1.iew.wb_producers                 71983801                       # num instructions producing a value
system.cpu1.iew.wb_rate                      0.208142                       # insts written-back per cycle
system.cpu1.iew.wb_sent                     143124022                       # cumulative count of insts sent to commit
system.cpu1.int_regfile_reads               179258568                       # number of integer regfile reads
system.cpu1.int_regfile_writes               96249305                       # number of integer regfile writes
system.cpu1.ipc                              0.189246                       # IPC: Instructions Per Cycle
system.cpu1.ipc_total                        0.189246                       # IPC: Total IPC of All Threads
system.cpu1.iq.FU_type_0::No_OpClass          7603390      5.22%      5.22% # Type of FU issued
system.cpu1.iq.FU_type_0::IntAlu             85511155     58.73%     63.96% # Type of FU issued
system.cpu1.iq.FU_type_0::IntMult                  48      0.00%     63.96% # Type of FU issued
system.cpu1.iq.FU_type_0::IntDiv                   88      0.00%     63.96% # Type of FU issued
system.cpu1.iq.FU_type_0::FloatAdd                  0      0.00%     63.96% # Type of FU issued
system.cpu1.iq.FU_type_0::FloatCmp                  0      0.00%     63.96% # Type of FU issued
system.cpu1.iq.FU_type_0::FloatCvt                  0      0.00%     63.96% # Type of FU issued
system.cpu1.iq.FU_type_0::FloatMult                 0      0.00%     63.96% # Type of FU issued
system.cpu1.iq.FU_type_0::FloatMultAcc              0      0.00%     63.96% # Type of FU issued
system.cpu1.iq.FU_type_0::FloatDiv                  0      0.00%     63.96% # Type of FU issued
system.cpu1.iq.FU_type_0::FloatMisc                 0      0.00%     63.96% # Type of FU issued
system.cpu1.iq.FU_type_0::FloatSqrt                 0      0.00%     63.96% # Type of FU issued
system.cpu1.iq.FU_type_0::SimdAdd                   0      0.00%     63.96% # Type of FU issued
system.cpu1.iq.FU_type_0::SimdAddAcc                0      0.00%     63.96% # Type of FU issued
system.cpu1.iq.FU_type_0::SimdAlu                   0      0.00%     63.96% # Type of FU issued
system.cpu1.iq.FU_type_0::SimdCmp                   0      0.00%     63.96% # Type of FU issued
system.cpu1.iq.FU_type_0::SimdCvt                   0      0.00%     63.96% # Type of FU issued
system.cpu1.iq.FU_type_0::SimdMisc                  0      0.00%     63.96% # Type of FU issued
system.cpu1.iq.FU_type_0::SimdMult                  0      0.00%     63.96% # Type of FU issued
system.cpu1.iq.FU_type_0::SimdMultAcc               0      0.00%     63.96% # Type of FU issued
system.cpu1.iq.FU_type_0::SimdShift                 0      0.00%     63.96% # Type of FU issued
system.cpu1.iq.FU_type_0::SimdShiftAcc              0      0.00%     63.96% # Type of FU issued
system.cpu1.iq.FU_type_0::SimdDiv                   0      0.00%     63.96% # Type of FU issued
system.cpu1.iq.FU_type_0::SimdSqrt                  0      0.00%     63.96% # Type of FU issued
system.cpu1.iq.FU_type_0::SimdFloatAdd              0      0.00%     63.96% # Type of FU issued
system.cpu1.iq.FU_type_0::SimdFloatAlu              0      0.00%     63.96% # Type of FU issued
system.cpu1.iq.FU_type_0::SimdFloatCmp              0      0.00%     63.96% # Type of FU issued
system.cpu1.iq.FU_type_0::SimdFloatCvt              0      0.00%     63.96% # Type of FU issued
system.cpu1.iq.FU_type_0::SimdFloatDiv              0      0.00%     63.96% # Type of FU issued
system.cpu1.iq.FU_type_0::SimdFloatMisc             0      0.00%     63.96% # Type of FU issued
system.cpu1.iq.FU_type_0::SimdFloatMult             0      0.00%     63.96% # Type of FU issued
system.cpu1.iq.FU_type_0::SimdFloatMultAcc            0      0.00%     63.96% # Type of FU issued
system.cpu1.iq.FU_type_0::SimdFloatSqrt             0      0.00%     63.96% # Type of FU issued
system.cpu1.iq.FU_type_0::SimdReduceAdd             0      0.00%     63.96% # Type of FU issued
system.cpu1.iq.FU_type_0::SimdReduceAlu             0      0.00%     63.96% # Type of FU issued
system.cpu1.iq.FU_type_0::SimdReduceCmp             0      0.00%     63.96% # Type of FU issued
system.cpu1.iq.FU_type_0::SimdFloatReduceAdd            0      0.00%     63.96% # Type of FU issued
system.cpu1.iq.FU_type_0::SimdFloatReduceCmp            0      0.00%     63.96% # Type of FU issued
system.cpu1.iq.FU_type_0::SimdAes                   0      0.00%     63.96% # Type of FU issued
system.cpu1.iq.FU_type_0::SimdAesMix                0      0.00%     63.96% # Type of FU issued
system.cpu1.iq.FU_type_0::SimdSha1Hash              0      0.00%     63.96% # Type of FU issued
system.cpu1.iq.FU_type_0::SimdSha1Hash2             0      0.00%     63.96% # Type of FU issued
system.cpu1.iq.FU_type_0::SimdSha256Hash            0      0.00%     63.96% # Type of FU issued
system.cpu1.iq.FU_type_0::SimdSha256Hash2            0      0.00%     63.96% # Type of FU issued
system.cpu1.iq.FU_type_0::SimdShaSigma2             0      0.00%     63.96% # Type of FU issued
system.cpu1.iq.FU_type_0::SimdShaSigma3             0      0.00%     63.96% # Type of FU issued
system.cpu1.iq.FU_type_0::SimdPredAlu               0      0.00%     63.96% # Type of FU issued
system.cpu1.iq.FU_type_0::MemRead            43909414     30.16%     94.12% # Type of FU issued
system.cpu1.iq.FU_type_0::MemWrite            8565928      5.88%    100.00% # Type of FU issued
system.cpu1.iq.FU_type_0::FloatMemRead              0      0.00%    100.00% # Type of FU issued
system.cpu1.iq.FU_type_0::FloatMemWrite            12      0.00%    100.00% # Type of FU issued
system.cpu1.iq.FU_type_0::IprAccess                 0      0.00%    100.00% # Type of FU issued
system.cpu1.iq.FU_type_0::InstPrefetch              0      0.00%    100.00% # Type of FU issued
system.cpu1.iq.FU_type_0::total             145590035                       # Type of FU issued
system.cpu1.iq.fp_alu_accesses                     15                       # Number of floating point alu accesses
system.cpu1.iq.fp_inst_queue_reads                 27                       # Number of floating instruction queue reads
system.cpu1.iq.fp_inst_queue_wakeup_accesses           12                       # Number of floating instruction queue wakeup accesses
system.cpu1.iq.fp_inst_queue_writes                12                       # Number of floating instruction queue writes
system.cpu1.iq.fu_busy_cnt                    4341865                       # FU busy when requested
system.cpu1.iq.fu_busy_rate                  0.029823                       # FU busy rate (busy events/executed inst)
system.cpu1.iq.fu_full::No_OpClass                  0      0.00%      0.00% # attempts to use FU when none available
system.cpu1.iq.fu_full::IntAlu                 834438     19.22%     19.22% # attempts to use FU when none available
system.cpu1.iq.fu_full::IntMult                     0      0.00%     19.22% # attempts to use FU when none available
system.cpu1.iq.fu_full::IntDiv                      0      0.00%     19.22% # attempts to use FU when none available
system.cpu1.iq.fu_full::FloatAdd                    0      0.00%     19.22% # attempts to use FU when none available
system.cpu1.iq.fu_full::FloatCmp                    0      0.00%     19.22% # attempts to use FU when none available
system.cpu1.iq.fu_full::FloatCvt                    0      0.00%     19.22% # attempts to use FU when none available
system.cpu1.iq.fu_full::FloatMult                   0      0.00%     19.22% # attempts to use FU when none available
system.cpu1.iq.fu_full::FloatMultAcc                0      0.00%     19.22% # attempts to use FU when none available
system.cpu1.iq.fu_full::FloatDiv                    0      0.00%     19.22% # attempts to use FU when none available
system.cpu1.iq.fu_full::FloatMisc                   0      0.00%     19.22% # attempts to use FU when none available
system.cpu1.iq.fu_full::FloatSqrt                   0      0.00%     19.22% # attempts to use FU when none available
system.cpu1.iq.fu_full::SimdAdd                     0      0.00%     19.22% # attempts to use FU when none available
system.cpu1.iq.fu_full::SimdAddAcc                  0      0.00%     19.22% # attempts to use FU when none available
system.cpu1.iq.fu_full::SimdAlu                     0      0.00%     19.22% # attempts to use FU when none available
system.cpu1.iq.fu_full::SimdCmp                     0      0.00%     19.22% # attempts to use FU when none available
system.cpu1.iq.fu_full::SimdCvt                     0      0.00%     19.22% # attempts to use FU when none available
system.cpu1.iq.fu_full::SimdMisc                    0      0.00%     19.22% # attempts to use FU when none available
system.cpu1.iq.fu_full::SimdMult                    0      0.00%     19.22% # attempts to use FU when none available
system.cpu1.iq.fu_full::SimdMultAcc                 0      0.00%     19.22% # attempts to use FU when none available
system.cpu1.iq.fu_full::SimdShift                   0      0.00%     19.22% # attempts to use FU when none available
system.cpu1.iq.fu_full::SimdShiftAcc                0      0.00%     19.22% # attempts to use FU when none available
system.cpu1.iq.fu_full::SimdDiv                     0      0.00%     19.22% # attempts to use FU when none available
system.cpu1.iq.fu_full::SimdSqrt                    0      0.00%     19.22% # attempts to use FU when none available
system.cpu1.iq.fu_full::SimdFloatAdd                0      0.00%     19.22% # attempts to use FU when none available
system.cpu1.iq.fu_full::SimdFloatAlu                0      0.00%     19.22% # attempts to use FU when none available
system.cpu1.iq.fu_full::SimdFloatCmp                0      0.00%     19.22% # attempts to use FU when none available
system.cpu1.iq.fu_full::SimdFloatCvt                0      0.00%     19.22% # attempts to use FU when none available
system.cpu1.iq.fu_full::SimdFloatDiv                0      0.00%     19.22% # attempts to use FU when none available
system.cpu1.iq.fu_full::SimdFloatMisc               0      0.00%     19.22% # attempts to use FU when none available
system.cpu1.iq.fu_full::SimdFloatMult               0      0.00%     19.22% # attempts to use FU when none available
system.cpu1.iq.fu_full::SimdFloatMultAcc            0      0.00%     19.22% # attempts to use FU when none available
system.cpu1.iq.fu_full::SimdFloatSqrt               0      0.00%     19.22% # attempts to use FU when none available
system.cpu1.iq.fu_full::SimdReduceAdd               0      0.00%     19.22% # attempts to use FU when none available
system.cpu1.iq.fu_full::SimdReduceAlu               0      0.00%     19.22% # attempts to use FU when none available
system.cpu1.iq.fu_full::SimdReduceCmp               0      0.00%     19.22% # attempts to use FU when none available
system.cpu1.iq.fu_full::SimdFloatReduceAdd            0      0.00%     19.22% # attempts to use FU when none available
system.cpu1.iq.fu_full::SimdFloatReduceCmp            0      0.00%     19.22% # attempts to use FU when none available
system.cpu1.iq.fu_full::SimdAes                     0      0.00%     19.22% # attempts to use FU when none available
system.cpu1.iq.fu_full::SimdAesMix                  0      0.00%     19.22% # attempts to use FU when none available
system.cpu1.iq.fu_full::SimdSha1Hash                0      0.00%     19.22% # attempts to use FU when none available
system.cpu1.iq.fu_full::SimdSha1Hash2               0      0.00%     19.22% # attempts to use FU when none available
system.cpu1.iq.fu_full::SimdSha256Hash              0      0.00%     19.22% # attempts to use FU when none available
system.cpu1.iq.fu_full::SimdSha256Hash2             0      0.00%     19.22% # attempts to use FU when none available
system.cpu1.iq.fu_full::SimdShaSigma2               0      0.00%     19.22% # attempts to use FU when none available
system.cpu1.iq.fu_full::SimdShaSigma3               0      0.00%     19.22% # attempts to use FU when none available
system.cpu1.iq.fu_full::SimdPredAlu                 0      0.00%     19.22% # attempts to use FU when none available
system.cpu1.iq.fu_full::MemRead               3091461     71.20%     90.42% # attempts to use FU when none available
system.cpu1.iq.fu_full::MemWrite               415963      9.58%    100.00% # attempts to use FU when none available
[...]
system.cpu1.dcache.ReadReq_mshr_misses::total    242923167                       # number of ReadReq MSHR misses
system.cpu1.dcache.ReadReq_mshr_miss_latency::.cpu1.data 22900505455500                       # number of ReadReq MSHR miss cycles
system.cpu1.dcache.ReadReq_mshr_miss_latency::total 22900505455500                       # number of ReadReq MSHR miss cycles
system.cpu1.dcache.ReadReq_mshr_miss_rate::.cpu1.data     0.271711                       # mshr miss rate for ReadReq accesses
system.cpu1.dcache.ReadReq_mshr_miss_rate::total     0.271711                       # mshr miss rate for ReadReq accesses
system.cpu1.dcache.ReadReq_avg_mshr_miss_latency::.cpu1.data 94270.570149                       # average ReadReq mshr miss latency
system.cpu1.dcache.ReadReq_avg_mshr_miss_latency::total 94270.570149                       # average ReadReq mshr miss latency
system.cpu1.dcache.WriteReq_hits::.cpu1.data     38911594                       # number of WriteReq hits
system.cpu1.dcache.WriteReq_hits::total      38911594                       # number of WriteReq hits
system.cpu1.dcache.WriteReq_misses::.cpu1.data     26448087                       # number of WriteReq misses
system.cpu1.dcache.WriteReq_misses::total     26448087                       # number of WriteReq misses
system.cpu1.dcache.WriteReq_miss_latency::.cpu1.data 2005787665795                       # number of WriteReq miss cycles
system.cpu1.dcache.WriteReq_miss_latency::total 2005787665795                       # number of WriteReq miss cycles
system.cpu1.dcache.WriteReq_accesses::.cpu1.data     65359681                       # number of WriteReq accesses(hits+misses)
system.cpu1.dcache.WriteReq_accesses::total     65359681                       # number of WriteReq accesses(hits+misses)
system.cpu1.dcache.WriteReq_miss_rate::.cpu1.data     0.404654                       # miss rate for WriteReq accesses
system.cpu1.dcache.WriteReq_miss_rate::total     0.404654                       # miss rate for WriteReq accesses
system.cpu1.dcache.WriteReq_avg_miss_latency::.cpu1.data 75838.667114                       # average WriteReq miss latency
system.cpu1.dcache.WriteReq_avg_miss_latency::total 75838.667114                       # average WriteReq miss latency
system.cpu1.dcache.WriteReq_mshr_hits::.cpu1.data     22321781                       # number of WriteReq MSHR hits
system.cpu1.dcache.WriteReq_mshr_hits::total     22321781                       # number of WriteReq MSHR hits
system.cpu1.dcache.WriteReq_mshr_misses::.cpu1.data      4126306                       # number of WriteReq MSHR misses
system.cpu1.dcache.WriteReq_mshr_misses::total      4126306                       # number of WriteReq MSHR misses
system.cpu1.dcache.WriteReq_mshr_miss_latency::.cpu1.data 304854957930                       # number of WriteReq MSHR miss cycles
system.cpu1.dcache.WriteReq_mshr_miss_latency::total 304854957930                       # number of WriteReq MSHR miss cycles
system.cpu1.dcache.WriteReq_mshr_miss_rate::.cpu1.data     0.063132                       # mshr miss rate for WriteReq accesses
system.cpu1.dcache.WriteReq_mshr_miss_rate::total     0.063132                       # mshr miss rate for WriteReq accesses
system.cpu1.dcache.WriteReq_avg_mshr_miss_latency::.cpu1.data 73880.841103                       # average WriteReq mshr miss latency
system.cpu1.dcache.WriteReq_avg_mshr_miss_latency::total 73880.841103                       # average WriteReq mshr miss latency
system.cpu1.dcache.LoadLockedReq_hits::.cpu1.data         6744                       # number of LoadLockedReq hits
system.cpu1.dcache.LoadLockedReq_hits::total         6744                       # number of LoadLockedReq hits
system.cpu1.dcache.LoadLockedReq_misses::.cpu1.data         1445                       # number of LoadLockedReq misses
system.cpu1.dcache.LoadLockedReq_misses::total         1445                       # number of LoadLockedReq misses
system.cpu1.dcache.LoadLockedReq_miss_latency::.cpu1.data     57487000                       # number of LoadLockedReq miss cycles
system.cpu1.dcache.LoadLockedReq_miss_latency::total     57487000                       # number of LoadLockedReq miss cycles
system.cpu1.dcache.LoadLockedReq_accesses::.cpu1.data         8189                       # number of LoadLockedReq accesses(hits+misses)
system.cpu1.dcache.LoadLockedReq_accesses::total         8189                       # number of LoadLockedReq accesses(hits+misses)
system.cpu1.dcache.LoadLockedReq_miss_rate::.cpu1.data     0.176456                       # miss rate for LoadLockedReq accesses
system.cpu1.dcache.LoadLockedReq_miss_rate::total     0.176456                       # miss rate for LoadLockedReq accesses
system.cpu1.dcache.LoadLockedReq_avg_miss_latency::.cpu1.data 39783.391003                       # average LoadLockedReq miss latency
system.cpu1.dcache.LoadLockedReq_avg_miss_latency::total 39783.391003                       # average LoadLockedReq miss latency
system.cpu1.dcache.LoadLockedReq_mshr_hits::.cpu1.data         1199                       # number of LoadLockedReq MSHR hits
system.cpu1.dcache.LoadLockedReq_mshr_hits::total         1199                       # number of LoadLockedReq MSHR hits
system.cpu1.dcache.LoadLockedReq_mshr_misses::.cpu1.data          246                       # number of LoadLockedReq MSHR misses
system.cpu1.dcache.LoadLockedReq_mshr_misses::total          246                       # number of LoadLockedReq MSHR misses
system.cpu1.dcache.LoadLockedReq_mshr_miss_latency::.cpu1.data       953500                       # number of LoadLockedReq MSHR miss cycles
system.cpu1.dcache.LoadLockedReq_mshr_miss_latency::total       953500                       # number of LoadLockedReq MSHR miss cycles
system.cpu1.dcache.LoadLockedReq_mshr_miss_rate::.cpu1.data     0.030040                       # mshr miss rate for LoadLockedReq accesses
system.cpu1.dcache.LoadLockedReq_mshr_miss_rate::total     0.030040                       # mshr miss rate for LoadLockedReq accesses
system.cpu1.dcache.LoadLockedReq_avg_mshr_miss_latency::.cpu1.data  3876.016260                       # average LoadLockedReq mshr miss latency
system.cpu1.dcache.LoadLockedReq_avg_mshr_miss_latency::total  3876.016260                       # average LoadLockedReq mshr miss latency
system.cpu1.dcache.StoreCondReq_hits::.cpu1.data         4071                       # number of StoreCondReq hits
system.cpu1.dcache.StoreCondReq_hits::total         4071                       # number of StoreCondReq hits
system.cpu1.dcache.StoreCondReq_misses::.cpu1.data         3110                       # number of StoreCondReq misses
system.cpu1.dcache.StoreCondReq_misses::total         3110                       # number of StoreCondReq misses
system.cpu1.dcache.StoreCondReq_miss_latency::.cpu1.data     16930000                       # number of StoreCondReq miss cycles
system.cpu1.dcache.StoreCondReq_miss_latency::total     16930000                       # number of StoreCondReq miss cycles
system.cpu1.dcache.StoreCondReq_accesses::.cpu1.data         7181                       # number of StoreCondReq accesses(hits+misses)
system.cpu1.dcache.StoreCondReq_accesses::total         7181                       # number of StoreCondReq accesses(hits+misses)
system.cpu1.dcache.StoreCondReq_miss_rate::.cpu1.data     0.433087                       # miss rate for StoreCondReq accesses
system.cpu1.dcache.StoreCondReq_miss_rate::total     0.433087                       # miss rate for StoreCondReq accesses
system.cpu1.dcache.StoreCondReq_avg_miss_latency::.cpu1.data  5443.729904                       # average StoreCondReq miss latency
system.cpu1.dcache.StoreCondReq_avg_miss_latency::total  5443.729904                       # average StoreCondReq miss latency
system.cpu1.dcache.StoreCondReq_mshr_misses::.cpu1.data         3109                       # number of StoreCondReq MSHR misses
system.cpu1.dcache.StoreCondReq_mshr_misses::total         3109                       # number of StoreCondReq MSHR misses
system.cpu1.dcache.StoreCondReq_mshr_miss_latency::.cpu1.data     13821000                       # number of StoreCondReq MSHR miss cycles
system.cpu1.dcache.StoreCondReq_mshr_miss_latency::total     13821000                       # number of StoreCondReq MSHR miss cycles
system.cpu1.dcache.StoreCondReq_mshr_miss_rate::.cpu1.data     0.432948                       # mshr miss rate for StoreCondReq accesses
system.cpu1.dcache.StoreCondReq_mshr_miss_rate::total     0.432948                       # mshr miss rate for StoreCondReq accesses
system.cpu1.dcache.StoreCondReq_avg_mshr_miss_latency::.cpu1.data  4445.480862                       # average StoreCondReq mshr miss latency
system.cpu1.dcache.StoreCondReq_avg_mshr_miss_latency::total  4445.480862                       # average StoreCondReq mshr miss latency
system.cpu1.dcache.SwapReq_hits::.cpu1.data         3653                       # number of SwapReq hits
system.cpu1.dcache.SwapReq_hits::total           3653                       # number of SwapReq hits
system.cpu1.dcache.SwapReq_misses::.cpu1.data       490692                       # number of SwapReq misses
system.cpu1.dcache.SwapReq_misses::total       490692                       # number of SwapReq misses
system.cpu1.dcache.SwapReq_miss_latency::.cpu1.data  21091060499                       # number of SwapReq miss cycles
system.cpu1.dcache.SwapReq_miss_latency::total  21091060499                       # number of SwapReq miss cycles
system.cpu1.dcache.SwapReq_accesses::.cpu1.data       494345                       # number of SwapReq accesses(hits+misses)
system.cpu1.dcache.SwapReq_accesses::total       494345                       # number of SwapReq accesses(hits+misses)
system.cpu1.dcache.SwapReq_miss_rate::.cpu1.data     0.992610                       # miss rate for SwapReq accesses
system.cpu1.dcache.SwapReq_miss_rate::total     0.992610                       # miss rate for SwapReq accesses
system.cpu1.dcache.SwapReq_avg_miss_latency::.cpu1.data 42982.279106                       # average SwapReq miss latency
system.cpu1.dcache.SwapReq_avg_miss_latency::total 42982.279106                       # average SwapReq miss latency
system.cpu1.dcache.SwapReq_mshr_hits::.cpu1.data           10                       # number of SwapReq MSHR hits
system.cpu1.dcache.SwapReq_mshr_hits::total           10                       # number of SwapReq MSHR hits
system.cpu1.dcache.SwapReq_mshr_misses::.cpu1.data       490682                       # number of SwapReq MSHR misses
system.cpu1.dcache.SwapReq_mshr_misses::total       490682                       # number of SwapReq MSHR misses
system.cpu1.dcache.SwapReq_mshr_miss_latency::.cpu1.data  20600368499                       # number of SwapReq MSHR miss cycles
system.cpu1.dcache.SwapReq_mshr_miss_latency::total  20600368499                       # number of SwapReq MSHR miss cycles
system.cpu1.dcache.SwapReq_mshr_miss_rate::.cpu1.data     0.992590                       # mshr miss rate for SwapReq accesses
system.cpu1.dcache.SwapReq_mshr_miss_rate::total     0.992590                       # mshr miss rate for SwapReq accesses
system.cpu1.dcache.SwapReq_avg_mshr_miss_latency::.cpu1.data 41983.134696                       # average SwapReq mshr miss latency
system.cpu1.dcache.SwapReq_avg_mshr_miss_latency::total 41983.134696                       # average SwapReq mshr miss latency
system.cpu1.dcache.tags.pwrStateResidencyTicks::UNDEFINED 6704454153500                       # Cumulative time (in ticks) in various power states
system.cpu1.dcache.tags.tagsinuse           31.972984                       # Cycle average of tags in use
system.cpu1.dcache.tags.total_refs          697065329                       # Total number of references to valid blocks.
system.cpu1.dcache.tags.sampled_refs        247294348                       # Sample count of references to valid blocks.
system.cpu1.dcache.tags.avg_refs             2.818768                       # Average number of references to valid blocks.
system.cpu1.dcache.tags.warmup_cycle                0                       # Cycle when the warmup percentage was hit.
system.cpu1.dcache.tags.occ_blocks::.cpu1.data    31.972984                       # Average occupied blocks per requestor
system.cpu1.dcache.tags.occ_percent::.cpu1.data     0.999156                       # Average percentage of cache occupancy
system.cpu1.dcache.tags.occ_percent::total     0.999156                       # Average percentage of cache occupancy
system.cpu1.dcache.tags.occ_task_id_blocks::1024           26                       # Occupied blocks per task id
system.cpu1.dcache.tags.age_task_id_blocks_1024::1           26                       # Occupied blocks per task id
system.cpu1.dcache.tags.occ_task_id_percent::1024     0.812500                       # Percentage of cache occupancy per task id
system.cpu1.dcache.tags.tag_accesses       2167130624                       # Number of tag accesses
system.cpu1.dcache.tags.data_accesses      2167130624                       # Number of data accesses
system.cpu_clk_domain.clock                       500                       # Clock period in ticks
system.tol2bus.pwrStateResidencyTicks::UNDEFINED 6704454153500                       # Cumulative time (in ticks) in various power states
system.tol2bus.trans_dist::ReadResp         487240416                       # Transaction distribution
system.tol2bus.trans_dist::WritebackDirty     29076408                       # Transaction distribution
system.tol2bus.trans_dist::WritebackClean    477847266                       # Transaction distribution
system.tol2bus.trans_dist::CleanEvict       913633730                       # Transaction distribution
system.tol2bus.trans_dist::HardPFReq        232314186                       # Transaction distribution
system.tol2bus.trans_dist::HardPFResp            1217                       # Transaction distribution
system.tol2bus.trans_dist::UpgradeReq          607426                       # Transaction distribution
system.tol2bus.trans_dist::SCUpgradeReq          5295                       # Transaction distribution
system.tol2bus.trans_dist::UpgradeResp         612721                       # Transaction distribution
system.tol2bus.trans_dist::SCUpgradeFailReq            1                       # Transaction distribution
system.tol2bus.trans_dist::UpgradeFailResp            1                       # Transaction distribution
system.tol2bus.trans_dist::ReadExReq          8805524                       # Transaction distribution
system.tol2bus.trans_dist::ReadExResp         8805524                       # Transaction distribution
system.tol2bus.trans_dist::ReadCleanReq        185930                       # Transaction distribution
system.tol2bus.trans_dist::ReadSharedReq    487054487                       # Transaction distribution
system.tol2bus.trans_dist::InvalidateReq            1                       # Transaction distribution
system.tol2bus.trans_dist::InvalidateResp            1                       # Transaction distribution
system.tol2bus.pkt_count_system.cpu0.icache.mem_side::system.l2.cpu_side       449323                       # Packet count per connected master and slave (bytes)
system.tol2bus.pkt_count_system.cpu0.dcache.mem_side::system.l2.cpu_side    745105714                       # Packet count per connected master and slave (bytes)
system.tol2bus.pkt_count_system.cpu1.icache.mem_side::system.l2.cpu_side       108465                       # Packet count per connected master and slave (bytes)
system.tol2bus.pkt_count_system.cpu1.dcache.mem_side::system.l2.cpu_side    741281366                       # Packet count per connected master and slave (bytes)
system.tol2bus.pkt_count::total            1486944868                       # Packet count per connected master and slave (bytes)
system.tol2bus.pkt_size_system.cpu0.icache.mem_side::system.l2.cpu_side     19171072                       # Cumulative packet size per connected master and slave (bytes)
system.tol2bus.pkt_size_system.cpu0.dcache.mem_side::system.l2.cpu_side  31752516032                       # Cumulative packet size per connected master and slave (bytes)
system.tol2bus.pkt_size_system.cpu1.icache.mem_side::system.l2.cpu_side      4627840                       # Cumulative packet size per connected master and slave (bytes)
system.tol2bus.pkt_size_system.cpu1.dcache.mem_side::system.l2.cpu_side  31589398656                       # Cumulative packet size per connected master and slave (bytes)
system.tol2bus.pkt_size::total            63365713600                       # Cumulative packet size per connected master and slave (bytes)
system.tol2bus.snoops                      1159246483                       # Total snoops (count)
system.tol2bus.snoopTraffic                 824497536                       # Total snoop traffic (bytes)
system.tol2bus.snoop_fanout::samples       1654776391                       # Request fanout histogram
system.tol2bus.snoop_fanout::mean            0.257459                       # Request fanout histogram
system.tol2bus.snoop_fanout::stdev           0.451606                       # Request fanout histogram
system.tol2bus.snoop_fanout::underflows             0      0.00%      0.00% # Request fanout histogram
system.tol2bus.snoop_fanout::0             1239308780     74.89%     74.89% # Request fanout histogram
system.tol2bus.snoop_fanout::1              404898693     24.47%     99.36% # Request fanout histogram
system.tol2bus.snoop_fanout::2               10568918      0.64%    100.00% # Request fanout histogram
system.tol2bus.snoop_fanout::3                      0      0.00%    100.00% # Request fanout histogram
system.tol2bus.snoop_fanout::4                      0      0.00%    100.00% # Request fanout histogram
system.tol2bus.snoop_fanout::5                      0      0.00%    100.00% # Request fanout histogram
system.tol2bus.snoop_fanout::6                      0      0.00%    100.00% # Request fanout histogram
system.tol2bus.snoop_fanout::7                      0      0.00%    100.00% # Request fanout histogram
system.tol2bus.snoop_fanout::8                      0      0.00%    100.00% # Request fanout histogram
system.tol2bus.snoop_fanout::overflows              0      0.00%    100.00% # Request fanout histogram
system.tol2bus.snoop_fanout::min_value              0                       # Request fanout histogram
system.tol2bus.snoop_fanout::max_value              2                       # Request fanout histogram
system.tol2bus.snoop_fanout::total         1654776391                       # Request fanout histogram
system.tol2bus.reqLayer0.occupancy       991755080984                       # Layer occupancy (ticks)
system.tol2bus.reqLayer0.utilization             14.8                       # Layer utilization (%)
system.tol2bus.respLayer1.occupancy      373613199788                       # Layer occupancy (ticks)
system.tol2bus.respLayer1.utilization             5.6                       # Layer utilization (%)
system.tol2bus.respLayer0.occupancy         225122076                       # Layer occupancy (ticks)
system.tol2bus.respLayer0.utilization             0.0                       # Layer utilization (%)
system.tol2bus.respLayer3.occupancy      371711917480                       # Layer occupancy (ticks)
system.tol2bus.respLayer3.utilization             5.5                       # Layer utilization (%)
system.tol2bus.respLayer2.occupancy          54513936                       # Layer occupancy (ticks)
system.tol2bus.respLayer2.utilization             0.0                       # Layer utilization (%)
system.tol2bus.snoopLayer0.occupancy          1826558                       # Layer occupancy (ticks)
system.tol2bus.snoopLayer0.utilization            0.0                       # Layer utilization (%)

---------- End Simulation Statistics   ----------
