
---------- Begin Simulation Statistics ----------
final_tick                               870426188000                       # Number of ticks from beginning of simulation (restored from checkpoints and never reset)
host_inst_rate                                  88178                       # Simulator instruction rate (inst/s)
host_mem_usage                                 739332                       # Number of bytes of host memory used
host_op_rate                                    88462                       # Simulator op (including micro ops) rate (op/s)
host_seconds                                 11550.64                       # Real time elapsed on the host
host_tick_rate                               75357419                       # Simulator tick rate (ticks/s)
sim_freq                                 1000000000000                       # Frequency of simulated ticks
sim_insts                                  1018514493                       # Number of instructions simulated
sim_ops                                    1021796163                       # Number of ops (including micro ops) simulated
sim_seconds                                  0.870426                       # Number of seconds simulated
sim_ticks                                870426188000                       # Number of ticks simulated
system.cpu0.branchPred.BTBCorrect                   0                       # Number of correct BTB predictions (this stat may not work properly.
system.cpu0.branchPred.BTBHitPct            87.178932                       # BTB Hit Percentage
system.cpu0.branchPred.BTBHits              121149259                       # Number of BTB hits
system.cpu0.branchPred.BTBLookups           138966211                       # Number of BTB lookups
system.cpu0.branchPred.RASInCorrect                 0                       # Number of incorrect RAS predictions.
system.cpu0.branchPred.condIncorrect         16641232                       # Number of conditional branches incorrect
system.cpu0.branchPred.condPredicted        188427456                       # Number of conditional branches predicted
system.cpu0.branchPred.indirectHits          16361601                       # Number of indirect target hits.
system.cpu0.branchPred.indirectLookups       16487665                       # Number of indirect predictor lookups.
system.cpu0.branchPred.indirectMisses          126064                       # Number of indirect misses.
system.cpu0.branchPred.lookups              239491456                       # Number of BP lookups
system.cpu0.branchPred.usedRAS                      0                       # Number of times the RAS was used to get a target.
system.cpu0.branchPredindirectMispredicted      1662600                       # Number of mispredicted indirect branches.
system.cpu0.commit.amos                        819899                       # Number of atomic instructions committed
system.cpu0.commit.branchMispredicts          9864722                       # The number of times a branch was mispredicted
system.cpu0.commit.branches                 221016864                       # Number of branches committed
system.cpu0.commit.bw_lim_events             28656959                       # number cycles where commit BW limit reached
system.cpu0.commit.commitNonSpecStalls        2466240                       # The number of times commit has been forced to stall to communicate backwards
system.cpu0.commit.commitSquashedInsts       60271250                       # The number of squashed insts skipped by commit
system.cpu0.commit.committedInsts           892416296                       # Number of instructions committed
system.cpu0.commit.committedOps             893238406                       # Number of ops (including micro ops) committed
system.cpu0.commit.committed_per_cycle::samples   1560874491                       # Number of insts commited each cycle
system.cpu0.commit.committed_per_cycle::mean     0.572268                       # Number of insts commited each cycle
system.cpu0.commit.committed_per_cycle::stdev     1.383787                       # Number of insts commited each cycle
system.cpu0.commit.committed_per_cycle::underflows            0      0.00%      0.00% # Number of insts commited each cycle
system.cpu0.commit.committed_per_cycle::0   1145871903     73.41%     73.41% # Number of insts commited each cycle
system.cpu0.commit.committed_per_cycle::1    242751205     15.55%     88.96% # Number of insts commited each cycle
system.cpu0.commit.committed_per_cycle::2     60736628      3.89%     92.86% # Number of insts commited each cycle
system.cpu0.commit.committed_per_cycle::3     54622188      3.50%     96.36% # Number of insts commited each cycle
system.cpu0.commit.committed_per_cycle::4     16077841      1.03%     97.39% # Number of insts commited each cycle
system.cpu0.commit.committed_per_cycle::5      5765030      0.37%     97.75% # Number of insts commited each cycle
system.cpu0.commit.committed_per_cycle::6      1993964      0.13%     97.88% # Number of insts commited each cycle
system.cpu0.commit.committed_per_cycle::7      4398773      0.28%     98.16% # Number of insts commited each cycle
system.cpu0.commit.committed_per_cycle::8     28656959      1.84%    100.00% # Number of insts commited each cycle
system.cpu0.commit.committed_per_cycle::overflows            0      0.00%    100.00% # Number of insts commited each cycle
system.cpu0.commit.committed_per_cycle::min_value            0                       # Number of insts commited each cycle
system.cpu0.commit.committed_per_cycle::max_value            8                       # Number of insts commited each cycle
system.cpu0.commit.committed_per_cycle::total   1560874491                       # Number of insts commited each cycle
system.cpu0.commit.fp_insts                        65                       # Number of committed floating point instructions.
system.cpu0.commit.function_calls            18341595                       # Number of function calls committed.
system.cpu0.commit.int_insts                863526649                       # Number of committed integer instructions.
system.cpu0.commit.loads                    280414747                       # Number of loads committed
system.cpu0.commit.membars                    1641865                       # Number of memory barriers committed
system.cpu0.commit.op_class_0::No_OpClass      1641874      0.18%      0.18% # Class of committed instruction
system.cpu0.commit.op_class_0::IntAlu       491124816     54.98%     55.17% # Class of committed instruction
system.cpu0.commit.op_class_0::IntMult        7835040      0.88%     56.04% # Class of committed instruction
system.cpu0.commit.op_class_0::IntDiv         1638717      0.18%     56.23% # Class of committed instruction
system.cpu0.commit.op_class_0::FloatAdd             0      0.00%     56.23% # Class of committed instruction
system.cpu0.commit.op_class_0::FloatCmp             6      0.00%     56.23% # Class of committed instruction
system.cpu0.commit.op_class_0::FloatCvt            16      0.00%     56.23% # Class of committed instruction
system.cpu0.commit.op_class_0::FloatMult            0      0.00%     56.23% # Class of committed instruction
system.cpu0.commit.op_class_0::FloatMultAcc            0      0.00%     56.23% # Class of committed instruction
system.cpu0.commit.op_class_0::FloatDiv             2      0.00%     56.23% # Class of committed instruction
system.cpu0.commit.op_class_0::FloatMisc            6      0.00%     56.23% # Class of committed instruction
system.cpu0.commit.op_class_0::FloatSqrt            0      0.00%     56.23% # Class of committed instruction
system.cpu0.commit.op_class_0::SimdAdd              0      0.00%     56.23% # Class of committed instruction
system.cpu0.commit.op_class_0::SimdAddAcc            0      0.00%     56.23% # Class of committed instruction
system.cpu0.commit.op_class_0::SimdAlu              0      0.00%     56.23% # Class of committed instruction
system.cpu0.commit.op_class_0::SimdCmp              0      0.00%     56.23% # Class of committed instruction
system.cpu0.commit.op_class_0::SimdCvt              0      0.00%     56.23% # Class of committed instruction
system.cpu0.commit.op_class_0::SimdMisc             0      0.00%     56.23% # Class of committed instruction
system.cpu0.commit.op_class_0::SimdMult             0      0.00%     56.23% # Class of committed instruction
system.cpu0.commit.op_class_0::SimdMultAcc            0      0.00%     56.23% # Class of committed instruction
system.cpu0.commit.op_class_0::SimdShift            0      0.00%     56.23% # Class of committed instruction
system.cpu0.commit.op_class_0::SimdShiftAcc            0      0.00%     56.23% # Class of committed instruction
system.cpu0.commit.op_class_0::SimdDiv              0      0.00%     56.23% # Class of committed instruction
system.cpu0.commit.op_class_0::SimdSqrt             0      0.00%     56.23% # Class of committed instruction
system.cpu0.commit.op_class_0::SimdFloatAdd            0      0.00%     56.23% # Class of committed instruction
system.cpu0.commit.op_class_0::SimdFloatAlu            0      0.00%     56.23% # Class of committed instruction
system.cpu0.commit.op_class_0::SimdFloatCmp            0      0.00%     56.23% # Class of committed instruction
system.cpu0.commit.op_class_0::SimdFloatCvt            0      0.00%     56.23% # Class of committed instruction
system.cpu0.commit.op_class_0::SimdFloatDiv            0      0.00%     56.23% # Class of committed instruction
system.cpu0.commit.op_class_0::SimdFloatMisc            0      0.00%     56.23% # Class of committed instruction
system.cpu0.commit.op_class_0::SimdFloatMult            0      0.00%     56.23% # Class of committed instruction
system.cpu0.commit.op_class_0::SimdFloatMultAcc            0      0.00%     56.23% # Class of committed instruction
system.cpu0.commit.op_class_0::SimdFloatSqrt            0      0.00%     56.23% # Class of committed instruction
system.cpu0.commit.op_class_0::SimdReduceAdd            0      0.00%     56.23% # Class of committed instruction
system.cpu0.commit.op_class_0::SimdReduceAlu            0      0.00%     56.23% # Class of committed instruction
system.cpu0.commit.op_class_0::SimdReduceCmp            0      0.00%     56.23% # Class of committed instruction
system.cpu0.commit.op_class_0::SimdFloatReduceAdd            0      0.00%     56.23% # Class of committed instruction
system.cpu0.commit.op_class_0::SimdFloatReduceCmp            0      0.00%     56.23% # Class of committed instruction
system.cpu0.commit.op_class_0::SimdAes              0      0.00%     56.23% # Class of committed instruction
system.cpu0.commit.op_class_0::SimdAesMix            0      0.00%     56.23% # Class of committed instruction
system.cpu0.commit.op_class_0::SimdSha1Hash            0      0.00%     56.23% # Class of committed instruction
system.cpu0.commit.op_class_0::SimdSha1Hash2            0      0.00%     56.23% # Class of committed instruction
system.cpu0.commit.op_class_0::SimdSha256Hash            0      0.00%     56.23% # Class of committed instruction
system.cpu0.commit.op_class_0::SimdSha256Hash2            0      0.00%     56.23% # Class of committed instruction
system.cpu0.commit.op_class_0::SimdShaSigma2            0      0.00%     56.23% # Class of committed instruction
system.cpu0.commit.op_class_0::SimdShaSigma3            0      0.00%     56.23% # Class of committed instruction
system.cpu0.commit.op_class_0::SimdPredAlu            0      0.00%     56.23% # Class of committed instruction
system.cpu0.commit.op_class_0::MemRead      281234634     31.48%     87.71% # Class of committed instruction
system.cpu0.commit.op_class_0::MemWrite     109763260     12.29%    100.00% # Class of committed instruction
system.cpu0.commit.op_class_0::FloatMemRead           12      0.00%    100.00% # Class of committed instruction
system.cpu0.commit.op_class_0::FloatMemWrite           23      0.00%    100.00% # Class of committed instruction
system.cpu0.commit.op_class_0::IprAccess            0      0.00%    100.00% # Class of committed instruction
system.cpu0.commit.op_class_0::InstPrefetch            0      0.00%    100.00% # Class of committed instruction
system.cpu0.commit.op_class_0::total        893238406                       # Class of committed instruction
system.cpu0.commit.refs                     390997929                       # Number of memory references committed
system.cpu0.commit.swp_count                        0                       # Number of s/w prefetches committed
system.cpu0.commit.vec_insts                        0                       # Number of committed Vector instructions.
system.cpu0.committedInsts                  892416296                       # Number of Instructions Simulated
system.cpu0.committedOps                    893238406                       # Number of Ops (including micro ops) Simulated
system.cpu0.cpi                              1.921666                       # CPI: Cycles Per Instruction
system.cpu0.cpi_total                        1.921666                       # CPI: Total CPI of All Threads
system.cpu0.decode.BlockedCycles            193349044                       # Number of cycles decode is blocked
system.cpu0.decode.BranchMispred              6782195                       # Number of times decode detected a branch misprediction
system.cpu0.decode.BranchResolved           119833645                       # Number of times decode resolved a branch
system.cpu0.decode.DecodedInsts             978903219                       # Number of instructions handled by decode
system.cpu0.decode.IdleCycles               666662389                       # Number of cycles decode is idle
system.cpu0.decode.RunCycles                702988191                       # Number of cycles decode is running
system.cpu0.decode.SquashCycles               9873939                       # Number of cycles decode is squashing
system.cpu0.decode.SquashedInsts             12953114                       # Number of squashed instructions handled by decode
system.cpu0.decode.UnblockCycles              3323001                       # Number of cycles decode is unblocking
system.cpu0.dtb.accesses                            0                       # DTB accesses
system.cpu0.dtb.hits                                0                       # DTB hits
system.cpu0.dtb.misses                              0                       # DTB misses
system.cpu0.dtb.read_accesses                       0                       # DTB read accesses
system.cpu0.dtb.read_hits                           0                       # DTB read hits
system.cpu0.dtb.read_misses                         0                       # DTB read misses
system.cpu0.dtb.write_accesses                      0                       # DTB write accesses
system.cpu0.dtb.write_hits                          0                       # DTB write hits
system.cpu0.dtb.write_misses                        0                       # DTB write misses
system.cpu0.fetch.Branches                  239491456                       # Number of branches that fetch encountered
system.cpu0.fetch.CacheLines                180151953                       # Number of cache lines fetched
system.cpu0.fetch.Cycles                    905253341                       # Number of cycles fetch has run and was not squashing or blocked
system.cpu0.fetch.IcacheSquashes              4234467                       # Number of outstanding Icache misses that were squashed
system.cpu0.fetch.IcacheWaitRetryStallCycles          142                       # Number of stall cycles due to full MSHR
system.cpu0.fetch.Insts                    1006081580                       # Number of instructions fetch has processed
system.cpu0.fetch.MiscStallCycles                  42                       # Number of cycles fetch has spent waiting on interrupts, or bad addresses, or out of MSHRs
system.cpu0.fetch.PendingTrapStallCycles          163                       # Number of stall cycles due to pending traps
system.cpu0.fetch.SquashCycles               33300948                       # Number of cycles fetch has spent squashing
system.cpu0.fetch.branchRate                 0.139651                       # Number of branch fetches per cycle
system.cpu0.fetch.icacheStallCycles         654292402                       # Number of cycles fetch is stalled on an Icache miss
system.cpu0.fetch.predictedBranches         137510860                       # Number of branches that fetch has predicted taken
system.cpu0.fetch.rate                       0.586662                       # Number of inst fetches per cycle
system.cpu0.fetch.rateDist::samples        1576196564                       # Number of instructions fetched each cycle (Total)
system.cpu0.fetch.rateDist::mean             0.640419                       # Number of instructions fetched each cycle (Total)
system.cpu0.fetch.rateDist::stdev            0.881846                       # Number of instructions fetched each cycle (Total)
system.cpu0.fetch.rateDist::underflows              0      0.00%      0.00% # Number of instructions fetched each cycle (Total)
system.cpu0.fetch.rateDist::0               846729463     53.72%     53.72% # Number of instructions fetched each cycle (Total)
system.cpu0.fetch.rateDist::1               549375087     34.85%     88.57% # Number of instructions fetched each cycle (Total)
system.cpu0.fetch.rateDist::2               111137108      7.05%     95.63% # Number of instructions fetched each cycle (Total)
system.cpu0.fetch.rateDist::3                52160975      3.31%     98.93% # Number of instructions fetched each cycle (Total)
system.cpu0.fetch.rateDist::4                 7468816      0.47%     99.41% # Number of instructions fetched each cycle (Total)
system.cpu0.fetch.rateDist::5                 6231630      0.40%     99.80% # Number of instructions fetched each cycle (Total)
system.cpu0.fetch.rateDist::6                 1421724      0.09%     99.89% # Number of instructions fetched each cycle (Total)
system.cpu0.fetch.rateDist::7                 1643323      0.10%    100.00% # Number of instructions fetched each cycle (Total)
system.cpu0.fetch.rateDist::8                   28438      0.00%    100.00% # Number of instructions fetched each cycle (Total)
system.cpu0.fetch.rateDist::overflows               0      0.00%    100.00% # Number of instructions fetched each cycle (Total)
system.cpu0.fetch.rateDist::min_value               0                       # Number of instructions fetched each cycle (Total)
system.cpu0.fetch.rateDist::max_value               8                       # Number of instructions fetched each cycle (Total)
system.cpu0.fetch.rateDist::total          1576196564                       # Number of instructions fetched each cycle (Total)
system.cpu0.fp_regfile_reads                       56                       # number of floating regfile reads
system.cpu0.fp_regfile_writes                      33                       # number of floating regfile writes
system.cpu0.idleCycles                      138729222                       # Total number of cycles that the CPU has spent unscheduled due to idling
system.cpu0.iew.branchMispredicts             9906414                       # Number of branch mispredicts detected at execute
system.cpu0.iew.exec_branches               228753904                       # Number of branches executed
system.cpu0.iew.exec_nop                            0                       # number of nop insts executed
system.cpu0.iew.exec_rate                    0.544129                       # Inst execution rate
system.cpu0.iew.exec_refs                   414354058                       # number of memory reference insts executed
system.cpu0.iew.exec_stores                 113860761                       # Number of stores executed
system.cpu0.iew.exec_swp                            0                       # number of swp insts executed
system.cpu0.iew.iewBlockCycles              161655947                       # Number of cycles IEW is blocking
system.cpu0.iew.iewDispLoadInsts            305199179                       # Number of dispatched load instructions
system.cpu0.iew.iewDispNonSpecInsts           1968149                       # Number of dispatched non-speculative instructions
system.cpu0.iew.iewDispSquashedInsts          5312852                       # Number of squashed instructions skipped by dispatch
system.cpu0.iew.iewDispStoreInsts           117634954                       # Number of dispatched store instructions
system.cpu0.iew.iewDispatchedInsts          953484886                       # Number of instructions dispatched to IQ
system.cpu0.iew.iewExecLoadInsts            300493297                       # Number of load instructions executed
system.cpu0.iew.iewExecSquashedInsts          3560887                       # Number of squashed instructions skipped in execute
system.cpu0.iew.iewExecutedInsts            933140337                       # Number of executed instructions
system.cpu0.iew.iewIQFullEvents               1040678                       # Number of times the IQ has become full, causing a stall
system.cpu0.iew.iewIdleCycles                       0                       # Number of cycles IEW is idle
system.cpu0.iew.iewLSQFullEvents              2221477                       # Number of times the LSQ has become full, causing a stall
system.cpu0.iew.iewSquashCycles               9873939                       # Number of cycles IEW is squashing
system.cpu0.iew.iewUnblockCycles              4112820                       # Number of cycles IEW is unblocking
system.cpu0.iew.lsq.thread0.blockedLoads            0                       # Number of blocked loads due to partial load-store forwarding
system.cpu0.iew.lsq.thread0.cacheBlocked        69965                       # Number of times an access to memory failed due to the cache being blocked
system.cpu0.iew.lsq.thread0.forwLoads        18239045                       # Number of loads that had data forwarded from stores
system.cpu0.iew.lsq.thread0.ignoredResponses        11967                       # Number of memory responses ignored because the instruction is squashed
system.cpu0.iew.lsq.thread0.invAddrLoads            0                       # Number of loads ignored due to an invalid address
system.cpu0.iew.lsq.thread0.invAddrSwpfs            0                       # Number of software prefetches ignored due to an invalid address
system.cpu0.iew.lsq.thread0.memOrderViolation         9792                       # Number of memory ordering violations
system.cpu0.iew.lsq.thread0.rescheduledLoads      3682058                       # Number of loads that were rescheduled
system.cpu0.iew.lsq.thread0.squashedLoads     24784432                       # Number of loads squashed
system.cpu0.iew.lsq.thread0.squashedStores      7051772                       # Number of stores squashed
system.cpu0.iew.memOrderViolationEvents          9792                       # Number of memory order violations
system.cpu0.iew.predictedNotTakenIncorrect       886595                       # Number of branches that were predicted not taken incorrectly
system.cpu0.iew.predictedTakenIncorrect       9019819                       # Number of branches that were predicted taken incorrectly
system.cpu0.iew.wb_consumers                385783774                       # num instructions consuming a value
system.cpu0.iew.wb_count                    926633192                       # cumulative count of insts written-back
system.cpu0.iew.wb_fanout                    0.856666                       # average fanout of values written-back
system.cpu0.iew.wb_producers                330487917                       # num instructions producing a value
system.cpu0.iew.wb_rate                      0.540334                       # insts written-back per cycle
system.cpu0.iew.wb_sent                     926665521                       # cumulative count of insts sent to commit
system.cpu0.int_regfile_reads              1137311894                       # number of integer regfile reads
system.cpu0.int_regfile_writes              591674360                       # number of integer regfile writes
system.cpu0.ipc                              0.520382                       # IPC: Instructions Per Cycle
system.cpu0.ipc_total                        0.520382                       # IPC: Total IPC of All Threads
system.cpu0.iq.FU_type_0::No_OpClass          1643399      0.18%      0.18% # Type of FU issued
system.cpu0.iq.FU_type_0::IntAlu            509151706     54.36%     54.53% # Type of FU issued
system.cpu0.iq.FU_type_0::IntMult             7839654      0.84%     55.37% # Type of FU issued
system.cpu0.iq.FU_type_0::IntDiv              1639156      0.17%     55.54% # Type of FU issued
system.cpu0.iq.FU_type_0::FloatAdd                  0      0.00%     55.54% # Type of FU issued
system.cpu0.iq.FU_type_0::FloatCmp                  6      0.00%     55.54% # Type of FU issued
system.cpu0.iq.FU_type_0::FloatCvt                 16      0.00%     55.54% # Type of FU issued
system.cpu0.iq.FU_type_0::FloatMult                 0      0.00%     55.54% # Type of FU issued
system.cpu0.iq.FU_type_0::FloatMultAcc              0      0.00%     55.54% # Type of FU issued
system.cpu0.iq.FU_type_0::FloatDiv                  2      0.00%     55.54% # Type of FU issued
system.cpu0.iq.FU_type_0::FloatMisc                 6      0.00%     55.54% # Type of FU issued
system.cpu0.iq.FU_type_0::FloatSqrt                 0      0.00%     55.54% # Type of FU issued
system.cpu0.iq.FU_type_0::SimdAdd                   0      0.00%     55.54% # Type of FU issued
system.cpu0.iq.FU_type_0::SimdAddAcc                0      0.00%     55.54% # Type of FU issued
system.cpu0.iq.FU_type_0::SimdAlu                   0      0.00%     55.54% # Type of FU issued
system.cpu0.iq.FU_type_0::SimdCmp                   0      0.00%     55.54% # Type of FU issued
system.cpu0.iq.FU_type_0::SimdCvt                   0      0.00%     55.54% # Type of FU issued
system.cpu0.iq.FU_type_0::SimdMisc                  0      0.00%     55.54% # Type of FU issued
system.cpu0.iq.FU_type_0::SimdMult                  0      0.00%     55.54% # Type of FU issued
system.cpu0.iq.FU_type_0::SimdMultAcc               0      0.00%     55.54% # Type of FU issued
system.cpu0.iq.FU_type_0::SimdShift                 0      0.00%     55.54% # Type of FU issued
system.cpu0.iq.FU_type_0::SimdShiftAcc              0      0.00%     55.54% # Type of FU issued
system.cpu0.iq.FU_type_0::SimdDiv                   0      0.00%     55.54% # Type of FU issued
system.cpu0.iq.FU_type_0::SimdSqrt                  0      0.00%     55.54% # Type of FU issued
system.cpu0.iq.FU_type_0::SimdFloatAdd              0      0.00%     55.54% # Type of FU issued
system.cpu0.iq.FU_type_0::SimdFloatAlu              0      0.00%     55.54% # Type of FU issued
system.cpu0.iq.FU_type_0::SimdFloatCmp              0      0.00%     55.54% # Type of FU issued
system.cpu0.iq.FU_type_0::SimdFloatCvt              0      0.00%     55.54% # Type of FU issued
system.cpu0.iq.FU_type_0::SimdFloatDiv              0      0.00%     55.54% # Type of FU issued
system.cpu0.iq.FU_type_0::SimdFloatMisc             0      0.00%     55.54% # Type of FU issued
system.cpu0.iq.FU_type_0::SimdFloatMult             0      0.00%     55.54% # Type of FU issued
system.cpu0.iq.FU_type_0::SimdFloatMultAcc            0      0.00%     55.54% # Type of FU issued
system.cpu0.iq.FU_type_0::SimdFloatSqrt             0      0.00%     55.54% # Type of FU issued
system.cpu0.iq.FU_type_0::SimdReduceAdd             0      0.00%     55.54% # Type of FU issued
system.cpu0.iq.FU_type_0::SimdReduceAlu             0      0.00%     55.54% # Type of FU issued
system.cpu0.iq.FU_type_0::SimdReduceCmp             0      0.00%     55.54% # Type of FU issued
system.cpu0.iq.FU_type_0::SimdFloatReduceAdd            0      0.00%     55.54% # Type of FU issued
system.cpu0.iq.FU_type_0::SimdFloatReduceCmp            0      0.00%     55.54% # Type of FU issued
system.cpu0.iq.FU_type_0::SimdAes                   0      0.00%     55.54% # Type of FU issued
system.cpu0.iq.FU_type_0::SimdAesMix                0      0.00%     55.54% # Type of FU issued
system.cpu0.iq.FU_type_0::SimdSha1Hash              0      0.00%     55.54% # Type of FU issued
system.cpu0.iq.FU_type_0::SimdSha1Hash2             0      0.00%     55.54% # Type of FU issued
system.cpu0.iq.FU_type_0::SimdSha256Hash            0      0.00%     55.54% # Type of FU issued
system.cpu0.iq.FU_type_0::SimdSha256Hash2            0      0.00%     55.54% # Type of FU issued
system.cpu0.iq.FU_type_0::SimdShaSigma2             0      0.00%     55.54% # Type of FU issued
system.cpu0.iq.FU_type_0::SimdShaSigma3             0      0.00%     55.54% # Type of FU issued
system.cpu0.iq.FU_type_0::SimdPredAlu               0      0.00%     55.54% # Type of FU issued
system.cpu0.iq.FU_type_0::MemRead           302410517     32.28%     87.83% # Type of FU issued
system.cpu0.iq.FU_type_0::MemWrite          114016726     12.17%    100.00% # Type of FU issued
system.cpu0.iq.FU_type_0::FloatMemRead             14      0.00%    100.00% # Type of FU issued
system.cpu0.iq.FU_type_0::FloatMemWrite            23      0.00%    100.00% # Type of FU issued
system.cpu0.iq.FU_type_0::IprAccess                 0      0.00%    100.00% # Type of FU issued
system.cpu0.iq.FU_type_0::InstPrefetch              0      0.00%    100.00% # Type of FU issued
system.cpu0.iq.FU_type_0::total             936701225                       # Type of FU issued
system.cpu0.iq.fp_alu_accesses                     70                       # Number of floating point alu accesses
system.cpu0.iq.fp_inst_queue_reads                137                       # Number of floating instruction queue reads
system.cpu0.iq.fp_inst_queue_wakeup_accesses           67                       # Number of floating instruction queue wakeup accesses
system.cpu0.iq.fp_inst_queue_writes                69                       # Number of floating instruction queue writes
system.cpu0.iq.fu_busy_cnt                    1008074                       # FU busy when requested
system.cpu0.iq.fu_busy_rate                  0.001076                       # FU busy rate (busy events/executed inst)
system.cpu0.iq.fu_full::No_OpClass                  0      0.00%      0.00% # attempts to use FU when none available
system.cpu0.iq.fu_full::IntAlu                 173723     17.23%     17.23% # attempts to use FU when none available
system.cpu0.iq.fu_full::IntMult                     0      0.00%     17.23% # attempts to use FU when none available
system.cpu0.iq.fu_full::IntDiv                      0      0.00%     17.23% # attempts to use FU when none available
system.cpu0.iq.fu_full::FloatAdd                    0      0.00%     17.23% # attempts to use FU when none available
system.cpu0.iq.fu_full::FloatCmp                    0      0.00%     17.23% # attempts to use FU when none available
system.cpu0.iq.fu_full::FloatCvt                    0      0.00%     17.23% # attempts to use FU when none available
system.cpu0.iq.fu_full::FloatMult                   0      0.00%     17.23% # attempts to use FU when none available
system.cpu0.iq.fu_full::FloatMultAcc                0      0.00%     17.23% # attempts to use FU when none available
system.cpu0.iq.fu_full::FloatDiv                    0      0.00%     17.23% # attempts to use FU when none available
system.cpu0.iq.fu_full::FloatMisc                   0      0.00%     17.23% # attempts to use FU when none available
system.cpu0.iq.fu_full::FloatSqrt                   0      0.00%     17.23% # attempts to use FU when none available
system.cpu0.iq.fu_full::SimdAdd                     0      0.00%     17.23% # attempts to use FU when none available
system.cpu0.iq.fu_full::SimdAddAcc                  0      0.00%     17.23% # attempts to use FU when none available
system.cpu0.iq.fu_full::SimdAlu                     0      0.00%     17.23% # attempts to use FU when none available
system.cpu0.iq.fu_full::SimdCmp                     0      0.00%     17.23% # attempts to use FU when none available
system.cpu0.iq.fu_full::SimdCvt                     0      0.00%     17.23% # attempts to use FU when none available
system.cpu0.iq.fu_full::SimdMisc                    0      0.00%     17.23% # attempts to use FU when none available
system.cpu0.iq.fu_full::SimdMult                    0      0.00%     17.23% # attempts to use FU when none available
system.cpu0.iq.fu_full::SimdMultAcc                 0      0.00%     17.23% # attempts to use FU when none available
system.cpu0.iq.fu_full::SimdShift                   0      0.00%     17.23% # attempts to use FU when none available
system.cpu0.iq.fu_full::SimdShiftAcc                0      0.00%     17.23% # attempts to use FU when none available
system.cpu0.iq.fu_full::SimdDiv                     0      0.00%     17.23% # attempts to use FU when none available
system.cpu0.iq.fu_full::SimdSqrt                    0      0.00%     17.23% # attempts to use FU when none available
system.cpu0.iq.fu_full::SimdFloatAdd                0      0.00%     17.23% # attempts to use FU when none available
system.cpu0.iq.fu_full::SimdFloatAlu                0      0.00%     17.23% # attempts to use FU when none available
system.cpu0.iq.fu_full::SimdFloatCmp                0      0.00%     17.23% # attempts to use FU when none available
system.cpu0.iq.fu_full::SimdFloatCvt                0      0.00%     17.23% # attempts to use FU when none available
system.cpu0.iq.fu_full::SimdFloatDiv                0      0.00%     17.23% # attempts to use FU when none available
system.cpu0.iq.fu_full::SimdFloatMisc               0      0.00%     17.23% # attempts to use FU when none available
system.cpu0.iq.fu_full::SimdFloatMult               0      0.00%     17.23% # attempts to use FU when none available
system.cpu0.iq.fu_full::SimdFloatMultAcc            0      0.00%     17.23% # attempts to use FU when none available
system.cpu0.iq.fu_full::SimdFloatSqrt               0      0.00%     17.23% # attempts to use FU when none available
system.cpu0.iq.fu_full::SimdReduceAdd               0      0.00%     17.23% # attempts to use FU when none available
system.cpu0.iq.fu_full::SimdReduceAlu               0      0.00%     17.23% # attempts to use FU when none available
system.cpu0.iq.fu_full::SimdReduceCmp               0      0.00%     17.23% # attempts to use FU when none available
system.cpu0.iq.fu_full::SimdFloatReduceAdd            0      0.00%     17.23% # attempts to use FU when none available
system.cpu0.iq.fu_full::SimdFloatReduceCmp            0      0.00%     17.23% # attempts to use FU when none available
system.cpu0.iq.fu_full::SimdAes                     0      0.00%     17.23% # attempts to use FU when none available
system.cpu0.iq.fu_full::SimdAesMix                  0      0.00%     17.23% # attempts to use FU when none available
system.cpu0.iq.fu_full::SimdSha1Hash                0      0.00%     17.23% # attempts to use FU when none available
system.cpu0.iq.fu_full::SimdSha1Hash2               0      0.00%     17.23% # attempts to use FU when none available
system.cpu0.iq.fu_full::SimdSha256Hash              0      0.00%     17.23% # attempts to use FU when none available
system.cpu0.iq.fu_full::SimdSha256Hash2             0      0.00%     17.23% # attempts to use FU when none available
system.cpu0.iq.fu_full::SimdShaSigma2               0      0.00%     17.23% # attempts to use FU when none available
system.cpu0.iq.fu_full::SimdShaSigma3               0      0.00%     17.23% # attempts to use FU when none available
system.cpu0.iq.fu_full::SimdPredAlu                 0      0.00%     17.23% # attempts to use FU when none available
system.cpu0.iq.fu_full::MemRead                720479     71.47%     88.70% # attempts to use FU when none available
system.cpu0.iq.fu_full::MemWrite               113869     11.30%    100.00% # attempts to use FU when none available
system.cpu0.iq.fu_full::FloatMemRead                0      0.00%    100.00% # attempts to use FU when none available
system.cpu0.iq.fu_full::FloatMemWrite               3      0.00%    100.00% # attempts to use FU when none available
system.cpu0.iq.fu_full::IprAccess                   0      0.00%    100.00% # attempts to use FU when none available
system.cpu0.iq.fu_full::InstPrefetch                0      0.00%    100.00% # attempts to use FU when none available
system.cpu0.iq.int_alu_accesses             936065830                       # Number of integer alu accesses
system.cpu0.iq.int_inst_queue_reads        3450666996                       # Number of integer instruction queue reads
system.cpu0.iq.int_inst_queue_wakeup_accesses    926633125                       # Number of integer instruction queue wakeup accesses
system.cpu0.iq.int_inst_queue_writes       1013739944                       # Number of integer instruction queue writes
system.cpu0.iq.iqInstsAdded                 947602316                       # Number of instructions added to the IQ (excludes non-spec)
system.cpu0.iq.iqInstsIssued                936701225                       # Number of instructions issued
system.cpu0.iq.iqNonSpecInstsAdded            5882570                       # Number of non-speculative instructions added to the IQ
system.cpu0.iq.iqSquashedInstsExamined       60246476                       # Number of squashed instructions iterated over during squash; mainly for profiling
system.cpu0.iq.iqSquashedInstsIssued            60046                       # Number of squashed instructions issued
system.cpu0.iq.iqSquashedNonSpecRemoved       3416330                       # Number of squashed non-spec instructions that were removed
system.cpu0.iq.iqSquashedOperandsExamined     28269062                       # Number of squashed operands that are examined and possibly removed from graph
system.cpu0.iq.issued_per_cycle::samples   1576196564                       # Number of insts issued each cycle
system.cpu0.iq.issued_per_cycle::mean        0.594279                       # Number of insts issued each cycle
system.cpu0.iq.issued_per_cycle::stdev       0.794211                       # Number of insts issued each cycle
system.cpu0.iq.issued_per_cycle::underflows            0      0.00%      0.00% # Number of insts issued each cycle
system.cpu0.iq.issued_per_cycle::0          881914244     55.95%     55.95% # Number of insts issued each cycle
system.cpu0.iq.issued_per_cycle::1          498963286     31.66%     87.61% # Number of insts issued each cycle
system.cpu0.iq.issued_per_cycle::2          160307032     10.17%     97.78% # Number of insts issued each cycle
system.cpu0.iq.issued_per_cycle::3           27339491      1.73%     99.51% # Number of insts issued each cycle
system.cpu0.iq.issued_per_cycle::4            4039753      0.26%     99.77% # Number of insts issued each cycle
system.cpu0.iq.issued_per_cycle::5            3081029      0.20%     99.96% # Number of insts issued each cycle
system.cpu0.iq.issued_per_cycle::6             375819      0.02%     99.99% # Number of insts issued each cycle
system.cpu0.iq.issued_per_cycle::7             120949      0.01%    100.00% # Number of insts issued each cycle
system.cpu0.iq.issued_per_cycle::8              54961      0.00%    100.00% # Number of insts issued each cycle
system.cpu0.iq.issued_per_cycle::overflows            0      0.00%    100.00% # Number of insts issued each cycle
system.cpu0.iq.issued_per_cycle::min_value            0                       # Number of insts issued each cycle
system.cpu0.iq.issued_per_cycle::max_value            8                       # Number of insts issued each cycle
system.cpu0.iq.issued_per_cycle::total     1576196564                       # Number of insts issued each cycle
system.cpu0.iq.rate                          0.546205                       # Inst issue rate
system.cpu0.iq.vec_alu_accesses                     0                       # Number of vector alu accesses
system.cpu0.iq.vec_inst_queue_reads                 0                       # Number of vector instruction queue reads
system.cpu0.iq.vec_inst_queue_wakeup_accesses            0                       # Number of vector instruction queue wakeup accesses
system.cpu0.iq.vec_inst_queue_writes                0                       # Number of vector instruction queue writes
system.cpu0.itb.accesses                            0                       # DTB accesses
system.cpu0.itb.hits                                0                       # DTB hits
system.cpu0.itb.misses                              0                       # DTB misses
system.cpu0.itb.read_accesses                       0                       # DTB read accesses
system.cpu0.itb.read_hits                           0                       # DTB read hits
system.cpu0.itb.read_misses                         0                       # DTB read misses
system.cpu0.itb.write_accesses                      0                       # DTB write accesses
system.cpu0.itb.write_hits                          0                       # DTB write hits
system.cpu0.itb.write_misses                        0                       # DTB write misses
system.cpu0.memDep0.conflictingLoads         14683024                       # Number of conflicting loads.
system.cpu0.memDep0.conflictingStores         2651484                       # Number of conflicting stores.
system.cpu0.memDep0.insertedLoads           305199179                       # Number of loads inserted to the mem dependence unit.
system.cpu0.memDep0.insertedStores          117634954                       # Number of stores inserted to the mem dependence unit.
system.cpu0.misc_regfile_reads                   1538                       # number of misc regfile reads
system.cpu0.misc_regfile_writes                    30                       # number of misc regfile writes
system.cpu0.numCycles                      1714925786                       # number of cpu cycles simulated
system.cpu0.numWorkItemsCompleted                   0                       # number of work items this cpu completed
system.cpu0.numWorkItemsStarted                     0                       # number of work items this cpu started
system.cpu0.quiesceCycles                    25926647                       # Total number of cycles that CPU has spent quiesced or waiting for an interrupt
system.cpu0.rename.BlockCycles              169248535                       # Number of cycles rename is blocking
system.cpu0.rename.CommittedMaps            569167843                       # Number of HB maps that are committed
system.cpu0.rename.IQFullEvents               3206304                       # Number of times rename has blocked due to IQ full
system.cpu0.rename.IdleCycles               679625689                       # Number of cycles rename is idle
system.cpu0.rename.LQFullEvents               8129478                       # Number of times rename has blocked due to LQ full
system.cpu0.rename.ROBFullEvents                 5335                       # Number of times rename has blocked due to ROB full
system.cpu0.rename.RenameLookups           1180469224                       # Number of register rename lookups that rename has made
system.cpu0.rename.RenamedInsts             969353644                       # Number of instructions processed by rename
system.cpu0.rename.RenamedOperands          622908048                       # Number of destination operands rename has renamed
system.cpu0.rename.RunCycles                692517330                       # Number of cycles rename is running
system.cpu0.rename.SQFullEvents              12770808                       # Number of times rename has blocked due to SQ full
system.cpu0.rename.SquashCycles               9873939                       # Number of cycles rename is squashing
system.cpu0.rename.UnblockCycles             24651031                       # Number of cycles rename is unblocking
system.cpu0.rename.UndoneMaps                53740200                       # Number of HB maps that are undone due to squashing
system.cpu0.rename.fp_rename_lookups               56                       # Number of floating rename lookups
system.cpu0.rename.int_rename_lookups      1180469168                       # Number of integer rename lookups
system.cpu0.rename.serializeStallCycles        280040                       # count of cycles rename stalled for serializing inst
system.cpu0.rename.serializingInsts              4626                       # count of serializing insts renamed
system.cpu0.rename.skidInsts                  8812018                       # count of insts added to the skid buffer
system.cpu0.rename.tempSerializingInsts          4623                       # count of temporary serializing insts renamed
system.cpu0.rob.rob_reads                  2485707961                       # The number of ROB reads
system.cpu0.rob.rob_writes                 1922347037                       # The number of ROB writes
system.cpu0.timesIdled                       20433237                       # Number of times that the entire CPU went into an idle state and unscheduled itself
system.cpu0.workload.numSyscalls                 1494                       # Number of system calls
system.cpu1.branchPred.BTBCorrect                   0                       # Number of correct BTB predictions (this stat may not work properly.
system.cpu1.branchPred.BTBHitPct            88.123688                       # BTB Hit Percentage
system.cpu1.branchPred.BTBHits                8602311                       # Number of BTB hits
system.cpu1.branchPred.BTBLookups             9761633                       # Number of BTB lookups
system.cpu1.branchPred.RASInCorrect                 0                       # Number of incorrect RAS predictions.
system.cpu1.branchPred.condIncorrect          1546517                       # Number of conditional branches incorrect
system.cpu1.branchPred.condPredicted         12608243                       # Number of conditional branches predicted
system.cpu1.branchPred.indirectHits            233438                       # Number of indirect target hits.
system.cpu1.branchPred.indirectLookups         277880                       # Number of indirect predictor lookups.
system.cpu1.branchPred.indirectMisses           44442                       # Number of indirect misses.
system.cpu1.branchPred.lookups               14763683                       # Number of BP lookups
system.cpu1.branchPred.usedRAS                      0                       # Number of times the RAS was used to get a target.
system.cpu1.branchPredindirectMispredicted        24079                       # Number of mispredicted indirect branches.
system.cpu1.commit.amos                        819644                       # Number of atomic instructions committed
system.cpu1.commit.branchMispredicts          1355422                       # The number of times a branch was mispredicted
system.cpu1.commit.branches                  10299798                       # Number of branches committed
system.cpu1.commit.bw_lim_events               654568                       # number cycles where commit BW limit reached
system.cpu1.commit.commitNonSpecStalls        2459642                       # The number of times commit has been forced to stall to communicate backwards
system.cpu1.commit.commitSquashedInsts        9896475                       # The number of squashed insts skipped by commit
system.cpu1.commit.committedInsts            41845549                       # Number of instructions committed
system.cpu1.commit.committedOps              42665401                       # Number of ops (including micro ops) committed
system.cpu1.commit.committed_per_cycle::samples    234802136                       # Number of insts commited each cycle
system.cpu1.commit.committed_per_cycle::mean     0.181708                       # Number of insts commited each cycle
system.cpu1.commit.committed_per_cycle::stdev     0.779758                       # Number of insts commited each cycle
system.cpu1.commit.committed_per_cycle::underflows            0      0.00%      0.00% # Number of insts commited each cycle
system.cpu1.commit.committed_per_cycle::0    215514154     91.79%     91.79% # Number of insts commited each cycle
system.cpu1.commit.committed_per_cycle::1      9512851      4.05%     95.84% # Number of insts commited each cycle
system.cpu1.commit.committed_per_cycle::2      3579675      1.52%     97.36% # Number of insts commited each cycle
system.cpu1.commit.committed_per_cycle::3      3388613      1.44%     98.80% # Number of insts commited each cycle
system.cpu1.commit.committed_per_cycle::4      1104780      0.47%     99.28% # Number of insts commited each cycle
system.cpu1.commit.committed_per_cycle::5       191296      0.08%     99.36% # Number of insts commited each cycle
system.cpu1.commit.committed_per_cycle::6       778176      0.33%     99.69% # Number of insts commited each cycle
system.cpu1.commit.committed_per_cycle::7        78023      0.03%     99.72% # Number of insts commited each cycle
system.cpu1.commit.committed_per_cycle::8       654568      0.28%    100.00% # Number of insts commited each cycle
system.cpu1.commit.committed_per_cycle::overflows            0      0.00%    100.00% # Number of insts commited each cycle
system.cpu1.commit.committed_per_cycle::min_value            0                       # Number of insts commited each cycle
system.cpu1.commit.committed_per_cycle::max_value            8                       # Number of insts commited each cycle
system.cpu1.commit.committed_per_cycle::total    234802136                       # Number of insts commited each cycle
system.cpu1.commit.fp_insts                        12                       # Number of committed floating point instructions.
system.cpu1.commit.function_calls              317291                       # Number of function calls committed.
system.cpu1.commit.int_insts                 40180262                       # Number of committed integer instructions.
system.cpu1.commit.loads                     11552558                       # Number of loads committed
system.cpu1.commit.membars                    1639380                       # Number of memory barriers committed
system.cpu1.commit.op_class_0::No_OpClass      1639380      3.84%      3.84% # Class of committed instruction
system.cpu1.commit.op_class_0::IntAlu        24988111     58.57%     62.41% # Class of committed instruction
system.cpu1.commit.op_class_0::IntMult             43      0.00%     62.41% # Class of committed instruction
system.cpu1.commit.op_class_0::IntDiv              86      0.00%     62.41% # Class of committed instruction
system.cpu1.commit.op_class_0::FloatAdd             0      0.00%     62.41% # Class of committed instruction
system.cpu1.commit.op_class_0::FloatCmp             0      0.00%     62.41% # Class of committed instruction
system.cpu1.commit.op_class_0::FloatCvt             0      0.00%     62.41% # Class of committed instruction
system.cpu1.commit.op_class_0::FloatMult            0      0.00%     62.41% # Class of committed instruction
system.cpu1.commit.op_class_0::FloatMultAcc            0      0.00%     62.41% # Class of committed instruction
system.cpu1.commit.op_class_0::FloatDiv             0      0.00%     62.41% # Class of committed instruction
system.cpu1.commit.op_class_0::FloatMisc            0      0.00%     62.41% # Class of committed instruction
system.cpu1.commit.op_class_0::FloatSqrt            0      0.00%     62.41% # Class of committed instruction
system.cpu1.commit.op_class_0::SimdAdd              0      0.00%     62.41% # Class of committed instruction
system.cpu1.commit.op_class_0::SimdAddAcc            0      0.00%     62.41% # Class of committed instruction
system.cpu1.commit.op_class_0::SimdAlu              0      0.00%     62.41% # Class of committed instruction
system.cpu1.commit.op_class_0::SimdCmp              0      0.00%     62.41% # Class of committed instruction
system.cpu1.commit.op_class_0::SimdCvt              0      0.00%     62.41% # Class of committed instruction
system.cpu1.commit.op_class_0::SimdMisc             0      0.00%     62.41% # Class of committed instruction
system.cpu1.commit.op_class_0::SimdMult             0      0.00%     62.41% # Class of committed instruction
system.cpu1.commit.op_class_0::SimdMultAcc            0      0.00%     62.41% # Class of committed instruction
system.cpu1.commit.op_class_0::SimdShift            0      0.00%     62.41% # Class of committed instruction
system.cpu1.commit.op_class_0::SimdShiftAcc            0      0.00%     62.41% # Class of committed instruction
system.cpu1.commit.op_class_0::SimdDiv              0      0.00%     62.41% # Class of committed instruction
system.cpu1.commit.op_class_0::SimdSqrt             0      0.00%     62.41% # Class of committed instruction
system.cpu1.commit.op_class_0::SimdFloatAdd            0      0.00%     62.41% # Class of committed instruction
system.cpu1.commit.op_class_0::SimdFloatAlu            0      0.00%     62.41% # Class of committed instruction
system.cpu1.commit.op_class_0::SimdFloatCmp            0      0.00%     62.41% # Class of committed instruction
system.cpu1.commit.op_class_0::SimdFloatCvt            0      0.00%     62.41% # Class of committed instruction
system.cpu1.commit.op_class_0::SimdFloatDiv            0      0.00%     62.41% # Class of committed instruction
system.cpu1.commit.op_class_0::SimdFloatMisc            0      0.00%     62.41% # Class of committed instruction
system.cpu1.commit.op_class_0::SimdFloatMult            0      0.00%     62.41% # Class of committed instruction
system.cpu1.commit.op_class_0::SimdFloatMultAcc            0      0.00%     62.41% # Class of committed instruction
system.cpu1.commit.op_class_0::SimdFloatSqrt            0      0.00%     62.41% # Class of committed instruction
system.cpu1.commit.op_class_0::SimdReduceAdd            0      0.00%     62.41% # Class of committed instruction
system.cpu1.commit.op_class_0::SimdReduceAlu            0      0.00%     62.41% # Class of committed instruction
system.cpu1.commit.op_class_0::SimdReduceCmp            0      0.00%     62.41% # Class of committed instruction
system.cpu1.commit.op_class_0::SimdFloatReduceAdd            0      0.00%     62.41% # Class of committed instruction
system.cpu1.commit.op_class_0::SimdFloatReduceCmp            0      0.00%     62.41% # Class of committed instruction
system.cpu1.commit.op_class_0::SimdAes              0      0.00%     62.41% # Class of committed instruction
system.cpu1.commit.op_class_0::SimdAesMix            0      0.00%     62.41% # Class of committed instruction
system.cpu1.commit.op_class_0::SimdSha1Hash            0      0.00%     62.41% # Class of committed instruction
system.cpu1.commit.op_class_0::SimdSha1Hash2            0      0.00%     62.41% # Class of committed instruction
system.cpu1.commit.op_class_0::SimdSha256Hash            0      0.00%     62.41% # Class of committed instruction
system.cpu1.commit.op_class_0::SimdSha256Hash2            0      0.00%     62.41% # Class of committed instruction
system.cpu1.commit.op_class_0::SimdShaSigma2            0      0.00%     62.41% # Class of committed instruction
system.cpu1.commit.op_class_0::SimdShaSigma3            0      0.00%     62.41% # Class of committed instruction
system.cpu1.commit.op_class_0::SimdPredAlu            0      0.00%     62.41% # Class of committed instruction
system.cpu1.commit.op_class_0::MemRead       12372202     29.00%     91.41% # Class of committed instruction
system.cpu1.commit.op_class_0::MemWrite       3665567      8.59%    100.00% # Class of committed instruction
system.cpu1.commit.op_class_0::FloatMemRead            0      0.00%    100.00% # Class of committed instruction
system.cpu1.commit.op_class_0::FloatMemWrite           12      0.00%    100.00% # Class of committed instruction
system.cpu1.commit.op_class_0::IprAccess            0      0.00%    100.00% # Class of committed instruction
system.cpu1.commit.op_class_0::InstPrefetch            0      0.00%    100.00% # Class of committed instruction
system.cpu1.commit.op_class_0::total         42665401                       # Class of committed instruction
system.cpu1.commit.refs                      16037781                       # Number of memory references committed
system.cpu1.commit.swp_count                        0                       # Number of s/w prefetches committed
system.cpu1.commit.vec_insts                        0                       # Number of committed Vector instructions.
system.cpu1.committedInsts                   41845549                       # Number of Instructions Simulated
system.cpu1.committedOps                     42665401                       # Number of Ops (including micro ops) Simulated
system.cpu1.cpi                              5.675743                       # CPI: Cycles Per Instruction
system.cpu1.cpi_total                        5.675743                       # CPI: Total CPI of All Threads
system.cpu1.decode.BlockedCycles            195788518                       # Number of cycles decode is blocked
system.cpu1.decode.BranchMispred               194888                       # Number of times decode detected a branch misprediction
system.cpu1.decode.BranchResolved             8087290                       # Number of times decode resolved a branch
system.cpu1.decode.DecodedInsts              57577109                       # Number of instructions handled by decode
system.cpu1.decode.IdleCycles                10401406                       # Number of cycles decode is idle
system.cpu1.decode.RunCycles                 27125215                       # Number of cycles decode is running
system.cpu1.decode.SquashCycles               1356408                       # Number of cycles decode is squashing
system.cpu1.decode.SquashedInsts               339103                       # Number of squashed instructions handled by decode
system.cpu1.decode.UnblockCycles              2131187                       # Number of cycles decode is unblocking
system.cpu1.dtb.accesses                            0                       # DTB accesses
system.cpu1.dtb.hits                                0                       # DTB hits
system.cpu1.dtb.misses                              0                       # DTB misses
system.cpu1.dtb.read_accesses                       0                       # DTB read accesses
system.cpu1.dtb.read_hits                           0                       # DTB read hits
system.cpu1.dtb.read_misses                         0                       # DTB read misses
system.cpu1.dtb.write_accesses                      0                       # DTB write accesses
system.cpu1.dtb.write_hits                          0                       # DTB write hits
system.cpu1.dtb.write_misses                        0                       # DTB write misses
system.cpu1.fetch.Branches                   14763683                       # Number of branches that fetch encountered
system.cpu1.fetch.CacheLines                  8201343                       # Number of cache lines fetched
system.cpu1.fetch.Cycles                    225611284                       # Number of cycles fetch has run and was not squashing or blocked
system.cpu1.fetch.IcacheSquashes               346610                       # Number of outstanding Icache misses that were squashed
system.cpu1.fetch.IcacheWaitRetryStallCycles           13                       # Number of stall cycles due to full MSHR
system.cpu1.fetch.Insts                      59540789                       # Number of instructions fetch has processed
system.cpu1.fetch.MiscStallCycles                   2                       # Number of cycles fetch has spent waiting on interrupts, or bad addresses, or out of MSHRs
system.cpu1.fetch.SquashCycles                3095006                       # Number of cycles fetch has spent squashing
system.cpu1.fetch.branchRate                 0.062162                       # Number of branch fetches per cycle
system.cpu1.fetch.icacheStallCycles           9643932                       # Number of cycles fetch is stalled on an Icache miss
system.cpu1.fetch.predictedBranches           8835749                       # Number of branches that fetch has predicted taken
system.cpu1.fetch.rate                       0.250693                       # Number of inst fetches per cycle
system.cpu1.fetch.rateDist::samples         236802734                       # Number of instructions fetched each cycle (Total)
system.cpu1.fetch.rateDist::mean             0.254903                       # Number of instructions fetched each cycle (Total)
system.cpu1.fetch.rateDist::stdev            0.685560                       # Number of instructions fetched each cycle (Total)
system.cpu1.fetch.rateDist::underflows              0      0.00%      0.00% # Number of instructions fetched each cycle (Total)
system.cpu1.fetch.rateDist::0               197837754     83.55%     83.55% # Number of instructions fetched each cycle (Total)
system.cpu1.fetch.rateDist::1                25234791     10.66%     94.20% # Number of instructions fetched each cycle (Total)
system.cpu1.fetch.rateDist::2                 8744056      3.69%     97.89% # Number of instructions fetched each cycle (Total)
system.cpu1.fetch.rateDist::3                 3313761      1.40%     99.29% # Number of instructions fetched each cycle (Total)
system.cpu1.fetch.rateDist::4                  986890      0.42%     99.71% # Number of instructions fetched each cycle (Total)
system.cpu1.fetch.rateDist::5                  421313      0.18%     99.89% # Number of instructions fetched each cycle (Total)
system.cpu1.fetch.rateDist::6                  233246      0.10%     99.99% # Number of instructions fetched each cycle (Total)
system.cpu1.fetch.rateDist::7                    3466      0.00%     99.99% # Number of instructions fetched each cycle (Total)
system.cpu1.fetch.rateDist::8                   27457      0.01%    100.00% # Number of instructions fetched each cycle (Total)
system.cpu1.fetch.rateDist::overflows               0      0.00%    100.00% # Number of instructions fetched each cycle (Total)
system.cpu1.fetch.rateDist::min_value               0                       # Number of instructions fetched each cycle (Total)
system.cpu1.fetch.rateDist::max_value               8                       # Number of instructions fetched each cycle (Total)
system.cpu1.fetch.rateDist::total           236802734                       # Number of instructions fetched each cycle (Total)
system.cpu1.fp_regfile_reads                       12                       # number of floating regfile reads
system.cpu1.idleCycles                         701854                       # Total number of cycles that the CPU has spent unscheduled due to idling
system.cpu1.iew.branchMispredicts             1396255                       # Number of branch mispredicts detected at execute
system.cpu1.iew.exec_branches                11347877                       # Number of branches executed
system.cpu1.iew.exec_nop                            0                       # number of nop insts executed
system.cpu1.iew.exec_rate                    0.205693                       # Inst execution rate
system.cpu1.iew.exec_refs                    18170689                       # number of memory reference insts executed
system.cpu1.iew.exec_stores                   5268048                       # Number of stores executed
system.cpu1.iew.exec_swp                            0                       # number of swp insts executed
system.cpu1.iew.iewBlockCycles              170784817                       # Number of cycles IEW is blocking
system.cpu1.iew.iewDispLoadInsts             13681073                       # Number of dispatched load instructions
system.cpu1.iew.iewDispNonSpecInsts            821027                       # Number of dispatched non-speculative instructions
system.cpu1.iew.iewDispSquashedInsts          1346367                       # Number of squashed instructions skipped by dispatch
system.cpu1.iew.iewDispStoreInsts             5888156                       # Number of dispatched store instructions
system.cpu1.iew.iewDispatchedInsts           52555053                       # Number of instructions dispatched to IQ
system.cpu1.iew.iewExecLoadInsts             12902641                       # Number of load instructions executed
system.cpu1.iew.iewExecSquashedInsts          1525090                       # Number of squashed instructions skipped in execute
system.cpu1.iew.iewExecutedInsts             48853126                       # Number of executed instructions
system.cpu1.iew.iewIQFullEvents                644147                       # Number of times the IQ has become full, causing a stall
system.cpu1.iew.iewIdleCycles                       0                       # Number of cycles IEW is idle
system.cpu1.iew.iewLSQFullEvents               754939                       # Number of times the LSQ has become full, causing a stall
system.cpu1.iew.iewSquashCycles               1356408                       # Number of cycles IEW is squashing
system.cpu1.iew.iewUnblockCycles              2401301                       # Number of cycles IEW is unblocking
system.cpu1.iew.lsq.thread0.blockedLoads            0                       # Number of blocked loads due to partial load-store forwarding
system.cpu1.iew.lsq.thread0.cacheBlocked        38891                       # Number of times an access to memory failed due to the cache being blocked
system.cpu1.iew.lsq.thread0.forwLoads          230111                       # Number of loads that had data forwarded from stores
system.cpu1.iew.lsq.thread0.ignoredResponses        11170                       # Number of memory responses ignored because the instruction is squashed
system.cpu1.iew.lsq.thread0.invAddrLoads            0                       # Number of loads ignored due to an invalid address
system.cpu1.iew.lsq.thread0.invAddrSwpfs            0                       # Number of software prefetches ignored due to an invalid address
system.cpu1.iew.lsq.thread0.memOrderViolation         2066                       # Number of memory ordering violations
system.cpu1.iew.lsq.thread0.rescheduledLoads         2163                       # Number of loads that were rescheduled
system.cpu1.iew.lsq.thread0.squashedLoads      2128515                       # Number of loads squashed
system.cpu1.iew.lsq.thread0.squashedStores      1402933                       # Number of stores squashed
system.cpu1.iew.memOrderViolationEvents          2066                       # Number of memory order violations
system.cpu1.iew.predictedNotTakenIncorrect       535673                       # Number of branches that were predicted not taken incorrectly
system.cpu1.iew.predictedTakenIncorrect        860582                       # Number of branches that were predicted taken incorrectly
system.cpu1.iew.wb_consumers                 25028735                       # num instructions consuming a value
system.cpu1.iew.wb_count                     47995891                       # cumulative count of insts written-back
system.cpu1.iew.wb_fanout                    0.797204                       # average fanout of values written-back
system.cpu1.iew.wb_producers                 19953002                       # num instructions producing a value
system.cpu1.iew.wb_rate                      0.202084                       # insts written-back per cycle
system.cpu1.iew.wb_sent                      48023445                       # cumulative count of insts sent to commit
system.cpu1.int_regfile_reads                62294811                       # number of integer regfile reads
system.cpu1.int_regfile_writes               30779041                       # number of integer regfile writes
system.cpu1.ipc                              0.176188                       # IPC: Instructions Per Cycle
system.cpu1.ipc_total                        0.176188                       # IPC: Total IPC of All Threads
system.cpu1.iq.FU_type_0::No_OpClass          1639587      3.25%      3.25% # Type of FU issued
system.cpu1.iq.FU_type_0::IntAlu             30069077     59.69%     62.94% # Type of FU issued
system.cpu1.iq.FU_type_0::IntMult                  53      0.00%     62.94% # Type of FU issued
system.cpu1.iq.FU_type_0::IntDiv                   86      0.00%     62.94% # Type of FU issued
system.cpu1.iq.FU_type_0::FloatAdd                  0      0.00%     62.94% # Type of FU issued
system.cpu1.iq.FU_type_0::FloatCmp                  0      0.00%     62.94% # Type of FU issued
system.cpu1.iq.FU_type_0::FloatCvt                  0      0.00%     62.94% # Type of FU issued
system.cpu1.iq.FU_type_0::FloatMult                 0      0.00%     62.94% # Type of FU issued
system.cpu1.iq.FU_type_0::FloatMultAcc              0      0.00%     62.94% # Type of FU issued
system.cpu1.iq.FU_type_0::FloatDiv                  0      0.00%     62.94% # Type of FU issued
system.cpu1.iq.FU_type_0::FloatMisc                 0      0.00%     62.94% # Type of FU issued
system.cpu1.iq.FU_type_0::FloatSqrt                 0      0.00%     62.94% # Type of FU issued
system.cpu1.iq.FU_type_0::SimdAdd                   0      0.00%     62.94% # Type of FU issued
system.cpu1.iq.FU_type_0::SimdAddAcc                0      0.00%     62.94% # Type of FU issued
system.cpu1.iq.FU_type_0::SimdAlu                   0      0.00%     62.94% # Type of FU issued
system.cpu1.iq.FU_type_0::SimdCmp                   0      0.00%     62.94% # Type of FU issued
system.cpu1.iq.FU_type_0::SimdCvt                   0      0.00%     62.94% # Type of FU issued
system.cpu1.iq.FU_type_0::SimdMisc                  0      0.00%     62.94% # Type of FU issued
system.cpu1.iq.FU_type_0::SimdMult                  0      0.00%     62.94% # Type of FU issued
system.cpu1.iq.FU_type_0::SimdMultAcc               0      0.00%     62.94% # Type of FU issued
system.cpu1.iq.FU_type_0::SimdShift                 0      0.00%     62.94% # Type of FU issued
system.cpu1.iq.FU_type_0::SimdShiftAcc              0      0.00%     62.94% # Type of FU issued
system.cpu1.iq.FU_type_0::SimdDiv                   0      0.00%     62.94% # Type of FU issued
system.cpu1.iq.FU_type_0::SimdSqrt                  0      0.00%     62.94% # Type of FU issued
system.cpu1.iq.FU_type_0::SimdFloatAdd              0      0.00%     62.94% # Type of FU issued
system.cpu1.iq.FU_type_0::SimdFloatAlu              0      0.00%     62.94% # Type of FU issued
system.cpu1.iq.FU_type_0::SimdFloatCmp              0      0.00%     62.94% # Type of FU issued
system.cpu1.iq.FU_type_0::SimdFloatCvt              0      0.00%     62.94% # Type of FU issued
system.cpu1.iq.FU_type_0::SimdFloatDiv              0      0.00%     62.94% # Type of FU issued
system.cpu1.iq.FU_type_0::SimdFloatMisc             0      0.00%     62.94% # Type of FU issued
system.cpu1.iq.FU_type_0::SimdFloatMult             0      0.00%     62.94% # Type of FU issued
system.cpu1.iq.FU_type_0::SimdFloatMultAcc            0      0.00%     62.94% # Type of FU issued
system.cpu1.iq.FU_type_0::SimdFloatSqrt             0      0.00%     62.94% # Type of FU issued
system.cpu1.iq.FU_type_0::SimdReduceAdd             0      0.00%     62.94% # Type of FU issued
system.cpu1.iq.FU_type_0::SimdReduceAlu             0      0.00%     62.94% # Type of FU issued
system.cpu1.iq.FU_type_0::SimdReduceCmp             0      0.00%     62.94% # Type of FU issued
system.cpu1.iq.FU_type_0::SimdFloatReduceAdd            0      0.00%     62.94% # Type of FU issued
system.cpu1.iq.FU_type_0::SimdFloatReduceCmp            0      0.00%     62.94% # Type of FU issued
system.cpu1.iq.FU_type_0::SimdAes                   0      0.00%     62.94% # Type of FU issued
system.cpu1.iq.FU_type_0::SimdAesMix                0      0.00%     62.94% # Type of FU issued
system.cpu1.iq.FU_type_0::SimdSha1Hash              0      0.00%     62.94% # Type of FU issued
system.cpu1.iq.FU_type_0::SimdSha1Hash2             0      0.00%     62.94% # Type of FU issued
system.cpu1.iq.FU_type_0::SimdSha256Hash            0      0.00%     62.94% # Type of FU issued
system.cpu1.iq.FU_type_0::SimdSha256Hash2            0      0.00%     62.94% # Type of FU issued
system.cpu1.iq.FU_type_0::SimdShaSigma2             0      0.00%     62.94% # Type of FU issued
system.cpu1.iq.FU_type_0::SimdShaSigma3             0      0.00%     62.94% # Type of FU issued
system.cpu1.iq.FU_type_0::SimdPredAlu               0      0.00%     62.94% # Type of FU issued
system.cpu1.iq.FU_type_0::MemRead            14075969     27.94%     90.88% # Type of FU issued
system.cpu1.iq.FU_type_0::MemWrite            4593432      9.12%    100.00% # Type of FU issued
system.cpu1.iq.FU_type_0::FloatMemRead              0      0.00%    100.00% # Type of FU issued
system.cpu1.iq.FU_type_0::FloatMemWrite            12      0.00%    100.00% # Type of FU issued
system.cpu1.iq.FU_type_0::IprAccess                 0      0.00%    100.00% # Type of FU issued
system.cpu1.iq.FU_type_0::InstPrefetch              0      0.00%    100.00% # Type of FU issued
system.cpu1.iq.FU_type_0::total              50378216                       # Type of FU issued
system.cpu1.iq.fp_alu_accesses                     15                       # Number of floating point alu accesses
system.cpu1.iq.fp_inst_queue_reads                 27                       # Number of floating instruction queue reads
system.cpu1.iq.fp_inst_queue_wakeup_accesses           12                       # Number of floating instruction queue wakeup accesses
system.cpu1.iq.fp_inst_queue_writes                12                       # Number of floating instruction queue writes
system.cpu1.iq.fu_busy_cnt                     929035                       # FU busy when requested
system.cpu1.iq.fu_busy_rate                  0.018441                       # FU busy rate (busy events/executed inst)
system.cpu1.iq.fu_full::No_OpClass                  0      0.00%      0.00% # attempts to use FU when none available
system.cpu1.iq.fu_full::IntAlu                 151841     16.34%     16.34% # attempts to use FU when none available
system.cpu1.iq.fu_full::IntMult                     0      0.00%     16.34% # attempts to use FU when none available
system.cpu1.iq.fu_full::IntDiv                      0      0.00%     16.34% # attempts to use FU when none available
system.cpu1.iq.fu_full::FloatAdd                    0      0.00%     16.34% # attempts to use FU when none available
system.cpu1.iq.fu_full::FloatCmp                    0      0.00%     16.34% # attempts to use FU when none available
system.cpu1.iq.fu_full::FloatCvt                    0      0.00%     16.34% # attempts to use FU when none available
system.cpu1.iq.fu_full::FloatMult                   0      0.00%     16.34% # attempts to use FU when none available
system.cpu1.iq.fu_full::FloatMultAcc                0      0.00%     16.34% # attempts to use FU when none available
system.cpu1.iq.fu_full::FloatDiv                    0      0.00%     16.34% # attempts to use FU when none available
system.cpu1.iq.fu_full::FloatMisc                   0      0.00%     16.34% # attempts to use FU when none available
system.cpu1.iq.fu_full::FloatSqrt                   0      0.00%     16.34% # attempts to use FU when none available
system.cpu1.iq.fu_full::SimdAdd                     0      0.00%     16.34% # attempts to use FU when none available
system.cpu1.iq.fu_full::SimdAddAcc                  0      0.00%     16.34% # attempts to use FU when none available
system.cpu1.iq.fu_full::SimdAlu                     0      0.00%     16.34% # attempts to use FU when none available
system.cpu1.iq.fu_full::SimdCmp                     0      0.00%     16.34% # attempts to use FU when none available
system.cpu1.iq.fu_full::SimdCvt                     0      0.00%     16.34% # attempts to use FU when none available
system.cpu1.iq.fu_full::SimdMisc                    0      0.00%     16.34% # attempts to use FU when none available
system.cpu1.iq.fu_full::SimdMult                    0      0.00%     16.34% # attempts to use FU when none available
system.cpu1.iq.fu_full::SimdMultAcc                 0      0.00%     16.34% # attempts to use FU when none available
system.cpu1.iq.fu_full::SimdShift                   0      0.00%     16.34% # attempts to use FU when none available
system.cpu1.iq.fu_full::SimdShiftAcc                0      0.00%     16.34% # attempts to use FU when none available
system.cpu1.iq.fu_full::SimdDiv                     0      0.00%     16.34% # attempts to use FU when none available
system.cpu1.iq.fu_full::SimdSqrt                    0      0.00%     16.34% # attempts to use FU when none available
system.cpu1.iq.fu_full::SimdFloatAdd                0      0.00%     16.34% # attempts to use FU when none available
system.cpu1.iq.fu_full::SimdFloatAlu                0      0.00%     16.34% # attempts to use FU when none available
system.cpu1.iq.fu_full::SimdFloatCmp                0      0.00%     16.34% # attempts to use FU when none available
system.cpu1.iq.fu_full::SimdFloatCvt                0      0.00%     16.34% # attempts to use FU when none available
system.cpu1.iq.fu_full::SimdFloatDiv                0      0.00%     16.34% # attempts to use FU when none available
system.cpu1.iq.fu_full::SimdFloatMisc               0      0.00%     16.34% # attempts to use FU when none available
system.cpu1.iq.fu_full::SimdFloatMult               0      0.00%     16.34% # attempts to use FU when none available
system.cpu1.iq.fu_full::SimdFloatMultAcc            0      0.00%     16.34% # attempts to use FU when none available
system.cpu1.iq.fu_full::SimdFloatSqrt               0      0.00%     16.34% # attempts to use FU when none available
system.cpu1.iq.fu_full::SimdReduceAdd               0      0.00%     16.34% # attempts to use FU when none available
system.cpu1.iq.fu_full::SimdReduceAlu               0      0.00%     16.34% # attempts to use FU when none available
system.cpu1.iq.fu_full::SimdReduceCmp               0      0.00%     16.34% # attempts to use FU when none available
system.cpu1.iq.fu_full::SimdFloatReduceAdd            0      0.00%     16.34% # attempts to use FU when none available
system.cpu1.iq.fu_full::SimdFloatReduceCmp            0      0.00%     16.34% # attempts to use FU when none available
system.cpu1.iq.fu_full::SimdAes                     0      0.00%     16.34% # attempts to use FU when none available
system.cpu1.iq.fu_full::SimdAesMix                  0      0.00%     16.34% # attempts to use FU when none available
system.cpu1.iq.fu_full::SimdSha1Hash                0      0.00%     16.34% # attempts to use FU when none available
system.cpu1.iq.fu_full::SimdSha1Hash2               0      0.00%     16.34% # attempts to use FU when none available
system.cpu1.iq.fu_full::SimdSha256Hash              0      0.00%     16.34% # attempts to use FU when none available
system.cpu1.iq.fu_full::SimdSha256Hash2             0      0.00%     16.34% # attempts to use FU when none available
system.cpu1.iq.fu_full::SimdShaSigma2               0      0.00%     16.34% # attempts to use FU when none available
system.cpu1.iq.fu_full::SimdShaSigma3               0      0.00%     16.34% # attempts to use FU when none available
system.cpu1.iq.fu_full::SimdPredAlu                 0      0.00%     16.34% # attempts to use FU when none available
system.cpu1.iq.fu_full::MemRead                678672     73.05%     89.40% # attempts to use FU when none available
[...]
system.cpu1.dcache.WriteReq_mshr_miss_rate::total     0.067382                       # mshr miss rate for WriteReq accesses
system.cpu1.dcache.WriteReq_avg_mshr_miss_latency::.cpu1.data 82270.611752                       # average WriteReq mshr miss latency
system.cpu1.dcache.WriteReq_avg_mshr_miss_latency::total 82270.611752                       # average WriteReq mshr miss latency
system.cpu1.dcache.LoadLockedReq_hits::.cpu1.data         4628                       # number of LoadLockedReq hits
system.cpu1.dcache.LoadLockedReq_hits::total         4628                       # number of LoadLockedReq hits
system.cpu1.dcache.LoadLockedReq_misses::.cpu1.data         1471                       # number of LoadLockedReq misses
system.cpu1.dcache.LoadLockedReq_misses::total         1471                       # number of LoadLockedReq misses
system.cpu1.dcache.LoadLockedReq_miss_latency::.cpu1.data     67717000                       # number of LoadLockedReq miss cycles
system.cpu1.dcache.LoadLockedReq_miss_latency::total     67717000                       # number of LoadLockedReq miss cycles
system.cpu1.dcache.LoadLockedReq_accesses::.cpu1.data         6099                       # number of LoadLockedReq accesses(hits+misses)
system.cpu1.dcache.LoadLockedReq_accesses::total         6099                       # number of LoadLockedReq accesses(hits+misses)
system.cpu1.dcache.LoadLockedReq_miss_rate::.cpu1.data     0.241187                       # miss rate for LoadLockedReq accesses
system.cpu1.dcache.LoadLockedReq_miss_rate::total     0.241187                       # miss rate for LoadLockedReq accesses
system.cpu1.dcache.LoadLockedReq_avg_miss_latency::.cpu1.data 46034.670292                       # average LoadLockedReq miss latency
system.cpu1.dcache.LoadLockedReq_avg_miss_latency::total 46034.670292                       # average LoadLockedReq miss latency
system.cpu1.dcache.LoadLockedReq_mshr_hits::.cpu1.data          311                       # number of LoadLockedReq MSHR hits
system.cpu1.dcache.LoadLockedReq_mshr_hits::total          311                       # number of LoadLockedReq MSHR hits
system.cpu1.dcache.LoadLockedReq_mshr_misses::.cpu1.data         1160                       # number of LoadLockedReq MSHR misses
system.cpu1.dcache.LoadLockedReq_mshr_misses::total         1160                       # number of LoadLockedReq MSHR misses
system.cpu1.dcache.LoadLockedReq_mshr_miss_latency::.cpu1.data     40817500                       # number of LoadLockedReq MSHR miss cycles
system.cpu1.dcache.LoadLockedReq_mshr_miss_latency::total     40817500                       # number of LoadLockedReq MSHR miss cycles
system.cpu1.dcache.LoadLockedReq_mshr_miss_rate::.cpu1.data     0.190195                       # mshr miss rate for LoadLockedReq accesses
system.cpu1.dcache.LoadLockedReq_mshr_miss_rate::total     0.190195                       # mshr miss rate for LoadLockedReq accesses
system.cpu1.dcache.LoadLockedReq_avg_mshr_miss_latency::.cpu1.data 35187.500000                       # average LoadLockedReq mshr miss latency
system.cpu1.dcache.LoadLockedReq_avg_mshr_miss_latency::total 35187.500000                       # average LoadLockedReq mshr miss latency
system.cpu1.dcache.StoreCondReq_hits::.cpu1.data         2500                       # number of StoreCondReq hits
system.cpu1.dcache.StoreCondReq_hits::total         2500                       # number of StoreCondReq hits
system.cpu1.dcache.StoreCondReq_misses::.cpu1.data         1982                       # number of StoreCondReq misses
system.cpu1.dcache.StoreCondReq_misses::total         1982                       # number of StoreCondReq misses
system.cpu1.dcache.StoreCondReq_miss_latency::.cpu1.data     15570000                       # number of StoreCondReq miss cycles
system.cpu1.dcache.StoreCondReq_miss_latency::total     15570000                       # number of StoreCondReq miss cycles
system.cpu1.dcache.StoreCondReq_accesses::.cpu1.data         4482                       # number of StoreCondReq accesses(hits+misses)
system.cpu1.dcache.StoreCondReq_accesses::total         4482                       # number of StoreCondReq accesses(hits+misses)
system.cpu1.dcache.StoreCondReq_miss_rate::.cpu1.data     0.442213                       # miss rate for StoreCondReq accesses
system.cpu1.dcache.StoreCondReq_miss_rate::total     0.442213                       # miss rate for StoreCondReq accesses
system.cpu1.dcache.StoreCondReq_avg_miss_latency::.cpu1.data  7855.701312                       # average StoreCondReq miss latency
system.cpu1.dcache.StoreCondReq_avg_miss_latency::total  7855.701312                       # average StoreCondReq miss latency
system.cpu1.dcache.StoreCondReq_mshr_misses::.cpu1.data         1900                       # number of StoreCondReq MSHR misses
system.cpu1.dcache.StoreCondReq_mshr_misses::total         1900                       # number of StoreCondReq MSHR misses
system.cpu1.dcache.StoreCondReq_mshr_miss_latency::.cpu1.data     13910000                       # number of StoreCondReq MSHR miss cycles
system.cpu1.dcache.StoreCondReq_mshr_miss_latency::total     13910000                       # number of StoreCondReq MSHR miss cycles
system.cpu1.dcache.StoreCondReq_mshr_miss_rate::.cpu1.data     0.423918                       # mshr miss rate for StoreCondReq accesses
system.cpu1.dcache.StoreCondReq_mshr_miss_rate::total     0.423918                       # mshr miss rate for StoreCondReq accesses
system.cpu1.dcache.StoreCondReq_avg_mshr_miss_latency::.cpu1.data  7321.052632                       # average StoreCondReq mshr miss latency
system.cpu1.dcache.StoreCondReq_avg_mshr_miss_latency::total  7321.052632                       # average StoreCondReq mshr miss latency
system.cpu1.dcache.StoreCondFailReq_miss_latency::.cpu1.data      2607000                       # number of StoreCondFailReq miss cycles
system.cpu1.dcache.StoreCondFailReq_miss_latency::total      2607000                       # number of StoreCondFailReq miss cycles
system.cpu1.dcache.StoreCondFailReq_avg_miss_latency::.cpu1.data          inf                       # average StoreCondFailReq miss latency
system.cpu1.dcache.StoreCondFailReq_avg_miss_latency::total          inf                       # average StoreCondFailReq miss latency
system.cpu1.dcache.StoreCondFailReq_mshr_miss_latency::.cpu1.data      2367000                       # number of StoreCondFailReq MSHR miss cycles
system.cpu1.dcache.StoreCondFailReq_mshr_miss_latency::total      2367000                       # number of StoreCondFailReq MSHR miss cycles
system.cpu1.dcache.StoreCondFailReq_avg_mshr_miss_latency::.cpu1.data          inf                       # average StoreCondFailReq mshr miss latency
system.cpu1.dcache.StoreCondFailReq_avg_mshr_miss_latency::total          inf                       # average StoreCondFailReq mshr miss latency
system.cpu1.dcache.SwapReq_hits::.cpu1.data         2030                       # number of SwapReq hits
system.cpu1.dcache.SwapReq_hits::total           2030                       # number of SwapReq hits
system.cpu1.dcache.SwapReq_misses::.cpu1.data        46783                       # number of SwapReq misses
system.cpu1.dcache.SwapReq_misses::total        46783                       # number of SwapReq misses
system.cpu1.dcache.SwapReq_miss_latency::.cpu1.data   1999888000                       # number of SwapReq miss cycles
system.cpu1.dcache.SwapReq_miss_latency::total   1999888000                       # number of SwapReq miss cycles
system.cpu1.dcache.SwapReq_accesses::.cpu1.data        48813                       # number of SwapReq accesses(hits+misses)
system.cpu1.dcache.SwapReq_accesses::total        48813                       # number of SwapReq accesses(hits+misses)
system.cpu1.dcache.SwapReq_miss_rate::.cpu1.data     0.958413                       # miss rate for SwapReq accesses
system.cpu1.dcache.SwapReq_miss_rate::total     0.958413                       # miss rate for SwapReq accesses
system.cpu1.dcache.SwapReq_avg_miss_latency::.cpu1.data 42748.177757                       # average SwapReq miss latency
system.cpu1.dcache.SwapReq_avg_miss_latency::total 42748.177757                       # average SwapReq miss latency
system.cpu1.dcache.SwapReq_mshr_hits::.cpu1.data            1                       # number of SwapReq MSHR hits
system.cpu1.dcache.SwapReq_mshr_hits::total            1                       # number of SwapReq MSHR hits
system.cpu1.dcache.SwapReq_mshr_misses::.cpu1.data        46782                       # number of SwapReq MSHR misses
system.cpu1.dcache.SwapReq_mshr_misses::total        46782                       # number of SwapReq MSHR misses
system.cpu1.dcache.SwapReq_mshr_miss_latency::.cpu1.data   1953105000                       # number of SwapReq MSHR miss cycles
system.cpu1.dcache.SwapReq_mshr_miss_latency::total   1953105000                       # number of SwapReq MSHR miss cycles
system.cpu1.dcache.SwapReq_mshr_miss_rate::.cpu1.data     0.958392                       # mshr miss rate for SwapReq accesses
system.cpu1.dcache.SwapReq_mshr_miss_rate::total     0.958392                       # mshr miss rate for SwapReq accesses
system.cpu1.dcache.SwapReq_avg_mshr_miss_latency::.cpu1.data 41749.070155                       # average SwapReq mshr miss latency
system.cpu1.dcache.SwapReq_avg_mshr_miss_latency::total 41749.070155                       # average SwapReq mshr miss latency
system.cpu1.dcache.tags.pwrStateResidencyTicks::UNDEFINED 1503753149500                       # Cumulative time (in ticks) in various power states
system.cpu1.dcache.tags.tagsinuse           31.958680                       # Cycle average of tags in use
system.cpu1.dcache.tags.total_refs           99428397                       # Total number of references to valid blocks.
system.cpu1.dcache.tags.sampled_refs         51460702                       # Sample count of references to valid blocks.
system.cpu1.dcache.tags.avg_refs             1.932123                       # Average number of references to valid blocks.
system.cpu1.dcache.tags.warmup_cycle                0                       # Cycle when the warmup percentage was hit.
system.cpu1.dcache.tags.occ_blocks::.cpu1.data    31.958680                       # Average occupied blocks per requestor
system.cpu1.dcache.tags.occ_percent::.cpu1.data     0.998709                       # Average percentage of cache occupancy
system.cpu1.dcache.tags.occ_percent::total     0.998709                       # Average percentage of cache occupancy
system.cpu1.dcache.tags.occ_task_id_blocks::1024           25                       # Occupied blocks per task id
system.cpu1.dcache.tags.age_task_id_blocks_1024::1           16                       # Occupied blocks per task id
system.cpu1.dcache.tags.age_task_id_blocks_1024::2            9                       # Occupied blocks per task id
system.cpu1.dcache.tags.occ_task_id_percent::1024     0.781250                       # Percentage of cache occupancy per task id
system.cpu1.dcache.tags.tag_accesses        295279519                       # Number of tag accesses
system.cpu1.dcache.tags.data_accesses       295279519                       # Number of data accesses
system.cpu_clk_domain.clock                       500                       # Clock period in ticks
system.tol2bus.pwrStateResidencyTicks::UNDEFINED 1503753149500                       # Cumulative time (in ticks) in various power states
system.tol2bus.trans_dist::ReadResp         204307260                       # Transaction distribution
system.tol2bus.trans_dist::ReadRespWithInvalidate            6                       # Transaction distribution
system.tol2bus.trans_dist::WritebackDirty      7257704                       # Transaction distribution
system.tol2bus.trans_dist::WritebackClean    201884661                       # Transaction distribution
system.tol2bus.trans_dist::CleanEvict       374563923                       # Transaction distribution
system.tol2bus.trans_dist::UpgradeReq           32942                       # Transaction distribution
system.tol2bus.trans_dist::SCUpgradeReq          7538                       # Transaction distribution
system.tol2bus.trans_dist::UpgradeResp          40480                       # Transaction distribution
system.tol2bus.trans_dist::SCUpgradeFailReq          771                       # Transaction distribution
system.tol2bus.trans_dist::UpgradeFailResp          771                       # Transaction distribution
system.tol2bus.trans_dist::ReadExReq          1794621                       # Transaction distribution
system.tol2bus.trans_dist::ReadExResp         1794621                       # Transaction distribution
system.tol2bus.trans_dist::ReadCleanReq        183772                       # Transaction distribution
system.tol2bus.trans_dist::ReadSharedReq    204123495                       # Transaction distribution
system.tol2bus.trans_dist::InvalidateReq            1                       # Transaction distribution
system.tol2bus.trans_dist::InvalidateResp            1                       # Transaction distribution
system.tol2bus.pkt_count_system.cpu0.icache.mem_side::system.l2.cpu_side       330868                       # Packet count per connected master and slave (bytes)
system.tol2bus.pkt_count_system.cpu0.dcache.mem_side::system.l2.cpu_side    154618853                       # Packet count per connected master and slave (bytes)
system.tol2bus.pkt_count_system.cpu1.icache.mem_side::system.l2.cpu_side        74082                       # Packet count per connected master and slave (bytes)
system.tol2bus.pkt_count_system.cpu1.dcache.mem_side::system.l2.cpu_side    154350046                       # Packet count per connected master and slave (bytes)
system.tol2bus.pkt_count_system.cpu2.icache.mem_side::system.l2.cpu_side        75069                       # Packet count per connected master and slave (bytes)
system.tol2bus.pkt_count_system.cpu2.dcache.mem_side::system.l2.cpu_side    154328323                       # Packet count per connected master and slave (bytes)
system.tol2bus.pkt_count_system.cpu3.icache.mem_side::system.l2.cpu_side        71283                       # Packet count per connected master and slave (bytes)
system.tol2bus.pkt_count_system.cpu3.dcache.mem_side::system.l2.cpu_side    154328056                       # Packet count per connected master and slave (bytes)
system.tol2bus.pkt_count::total             618176580                       # Packet count per connected master and slave (bytes)
system.tol2bus.pkt_size_system.cpu0.icache.mem_side::system.l2.cpu_side     14116736                       # Cumulative packet size per connected master and slave (bytes)
system.tol2bus.pkt_size_system.cpu0.dcache.mem_side::system.l2.cpu_side   6595572352                       # Cumulative packet size per connected master and slave (bytes)
system.tol2bus.pkt_size_system.cpu1.icache.mem_side::system.l2.cpu_side      3160832                       # Cumulative packet size per connected master and slave (bytes)
system.tol2bus.pkt_size_system.cpu1.dcache.mem_side::system.l2.cpu_side   6584082944                       # Cumulative packet size per connected master and slave (bytes)
system.tol2bus.pkt_size_system.cpu2.icache.mem_side::system.l2.cpu_side      3202944                       # Cumulative packet size per connected master and slave (bytes)
system.tol2bus.pkt_size_system.cpu2.dcache.mem_side::system.l2.cpu_side   6583086848                       # Cumulative packet size per connected master and slave (bytes)
system.tol2bus.pkt_size_system.cpu3.icache.mem_side::system.l2.cpu_side      3041408                       # Cumulative packet size per connected master and slave (bytes)
system.tol2bus.pkt_size_system.cpu3.dcache.mem_side::system.l2.cpu_side   6583069120                       # Cumulative packet size per connected master and slave (bytes)
system.tol2bus.pkt_size::total            26369333184                       # Cumulative packet size per connected master and slave (bytes)
system.tol2bus.snoops                       377815987                       # Total snoops (count)
system.tol2bus.snoopTraffic                 206348288                       # Total snoop traffic (bytes)
system.tol2bus.snoop_fanout::samples        583837809                       # Request fanout histogram
system.tol2bus.snoop_fanout::mean            0.367054                       # Request fanout histogram
system.tol2bus.snoop_fanout::stdev           0.528423                       # Request fanout histogram
system.tol2bus.snoop_fanout::underflows             0      0.00%      0.00% # Request fanout histogram
system.tol2bus.snoop_fanout::0              381132975     65.28%     65.28% # Request fanout histogram
system.tol2bus.snoop_fanout::1              192956068     33.05%     98.33% # Request fanout histogram
system.tol2bus.snoop_fanout::2                8152772      1.40%     99.73% # Request fanout histogram
system.tol2bus.snoop_fanout::3                1345399      0.23%     99.96% # Request fanout histogram
system.tol2bus.snoop_fanout::4                 250595      0.04%    100.00% # Request fanout histogram
system.tol2bus.snoop_fanout::5                      0      0.00%    100.00% # Request fanout histogram
system.tol2bus.snoop_fanout::6                      0      0.00%    100.00% # Request fanout histogram
system.tol2bus.snoop_fanout::7                      0      0.00%    100.00% # Request fanout histogram
system.tol2bus.snoop_fanout::8                      0      0.00%    100.00% # Request fanout histogram
system.tol2bus.snoop_fanout::overflows              0      0.00%    100.00% # Request fanout histogram
system.tol2bus.snoop_fanout::min_value              0                       # Request fanout histogram
system.tol2bus.snoop_fanout::max_value              4                       # Request fanout histogram
system.tol2bus.snoop_fanout::total          583837809                       # Request fanout histogram
system.tol2bus.reqLayer0.occupancy       412090101738                       # Layer occupancy (ticks)
system.tol2bus.reqLayer0.utilization             27.4                       # Layer utilization (%)
system.tol2bus.respLayer5.occupancy       77375390353                       # Layer occupancy (ticks)
system.tol2bus.respLayer5.utilization             5.1                       # Layer utilization (%)
system.tol2bus.respLayer4.occupancy          38916818                       # Layer occupancy (ticks)
system.tol2bus.respLayer4.utilization             0.0                       # Layer utilization (%)
system.tol2bus.respLayer7.occupancy       77375141899                       # Layer occupancy (ticks)
system.tol2bus.respLayer7.utilization             5.1                       # Layer utilization (%)
system.tol2bus.respLayer6.occupancy          37112814                       # Layer occupancy (ticks)
system.tol2bus.respLayer6.utilization             0.0                       # Layer utilization (%)
system.tol2bus.respLayer1.occupancy       77519022672                       # Layer occupancy (ticks)
system.tol2bus.respLayer1.utilization             5.2                       # Layer utilization (%)
system.tol2bus.respLayer0.occupancy         165811137                       # Layer occupancy (ticks)
system.tol2bus.respLayer0.utilization             0.0                       # Layer utilization (%)
system.tol2bus.respLayer3.occupancy       77385337278                       # Layer occupancy (ticks)
system.tol2bus.respLayer3.utilization             5.1                       # Layer utilization (%)
system.tol2bus.respLayer2.occupancy          38545628                       # Layer occupancy (ticks)
system.tol2bus.respLayer2.utilization             0.0                       # Layer utilization (%)

---------- End Simulation Statistics   ----------
