
---------- Begin Simulation Statistics ----------
final_tick                               938586773000                       # Number of ticks from beginning of simulation (restored from checkpoints and never reset)
host_inst_rate                                 102073                       # Simulator instruction rate (inst/s)
host_mem_usage                                 701440                       # Number of bytes of host memory used
host_op_rate                                   102412                       # Simulator op (including micro ops) rate (op/s)
host_seconds                                  6001.04                       # Real time elapsed on the host
host_tick_rate                              156404111                       # Simulator tick rate (ticks/s)
sim_freq                                 1000000000000                       # Frequency of simulated ticks
sim_insts                                   612541932                       # Number of instructions simulated
sim_ops                                     614579524                       # Number of ops (including micro ops) simulated
sim_seconds                                  0.938587                       # Number of seconds simulated
sim_ticks                                938586773000                       # Number of ticks simulated
system.cpu0.branchPred.BTBCorrect                   0                       # Number of correct BTB predictions (this stat may not work properly.
system.cpu0.branchPred.BTBHitPct            86.895125                       # BTB Hit Percentage
system.cpu0.branchPred.BTBHits               77837564                       # Number of BTB hits
system.cpu0.branchPred.BTBLookups            89576445                       # Number of BTB lookups
system.cpu0.branchPred.RASInCorrect                 0                       # Number of incorrect RAS predictions.
system.cpu0.branchPred.condIncorrect          7242059                       # Number of conditional branches incorrect
system.cpu0.branchPred.condPredicted        121517933                       # Number of conditional branches predicted
system.cpu0.branchPred.indirectHits          10671493                       # Number of indirect target hits.
system.cpu0.branchPred.indirectLookups       10887160                       # Number of indirect predictor lookups.
system.cpu0.branchPred.indirectMisses          215667                       # Number of indirect misses.
system.cpu0.branchPred.lookups              155808526                       # Number of BP lookups
system.cpu0.branchPred.usedRAS                      0                       # Number of times the RAS was used to get a target.
system.cpu0.branchPredindirectMispredicted      1064083                       # Number of mispredicted indirect branches.
system.cpu0.commit.amos                       1018203                       # Number of atomic instructions committed
system.cpu0.commit.branchMispredicts          5045456                       # The number of times a branch was mispredicted
system.cpu0.commit.branches                 143206390                       # Number of branches committed
system.cpu0.commit.bw_lim_events             20602610                       # number cycles where commit BW limit reached
system.cpu0.commit.commitNonSpecStalls        3058486                       # The number of times commit has been forced to stall to communicate backwards
system.cpu0.commit.commitSquashedInsts       37422802                       # The number of squashed insts skipped by commit
system.cpu0.commit.committedInsts           580279091                       # Number of instructions committed
system.cpu0.commit.committedOps             581298577                       # Number of ops (including micro ops) committed
system.cpu0.commit.committed_per_cycle::samples   1146297107                       # Number of insts commited each cycle
system.cpu0.commit.committed_per_cycle::mean     0.507110                       # Number of insts commited each cycle
system.cpu0.commit.committed_per_cycle::stdev     1.348963                       # Number of insts commited each cycle
system.cpu0.commit.committed_per_cycle::underflows            0      0.00%      0.00% # Number of insts commited each cycle
system.cpu0.commit.committed_per_cycle::0    888403189     77.50%     77.50% # Number of insts commited each cycle
system.cpu0.commit.committed_per_cycle::1    144602261     12.61%     90.12% # Number of insts commited each cycle
system.cpu0.commit.committed_per_cycle::2     38663963      3.37%     93.49% # Number of insts commited each cycle
system.cpu0.commit.committed_per_cycle::3     37021542      3.23%     96.72% # Number of insts commited each cycle
system.cpu0.commit.committed_per_cycle::4      8544281      0.75%     97.46% # Number of insts commited each cycle
system.cpu0.commit.committed_per_cycle::5      3643587      0.32%     97.78% # Number of insts commited each cycle
system.cpu0.commit.committed_per_cycle::6      2621893      0.23%     98.01% # Number of insts commited each cycle
system.cpu0.commit.committed_per_cycle::7      2193781      0.19%     98.20% # Number of insts commited each cycle
system.cpu0.commit.committed_per_cycle::8     20602610      1.80%    100.00% # Number of insts commited each cycle
system.cpu0.commit.committed_per_cycle::overflows            0      0.00%    100.00% # Number of insts commited each cycle
system.cpu0.commit.committed_per_cycle::min_value            0                       # Number of insts commited each cycle
system.cpu0.commit.committed_per_cycle::max_value            8                       # Number of insts commited each cycle
system.cpu0.commit.committed_per_cycle::total   1146297107                       # Number of insts commited each cycle
system.cpu0.commit.fp_insts                        50                       # Number of committed floating point instructions.
system.cpu0.commit.function_calls            11887148                       # Number of function calls committed.
system.cpu0.commit.int_insts                561274981                       # Number of committed integer instructions.
system.cpu0.commit.loads                    179951313                       # Number of loads committed
system.cpu0.commit.membars                    2037585                       # Number of memory barriers committed
system.cpu0.commit.op_class_0::No_OpClass      2037591      0.35%      0.35% # Class of committed instruction
system.cpu0.commit.op_class_0::IntAlu       322226993     55.43%     55.78% # Class of committed instruction
system.cpu0.commit.op_class_0::IntMult        4135822      0.71%     56.49% # Class of committed instruction
system.cpu0.commit.op_class_0::IntDiv         1017773      0.18%     56.67% # Class of committed instruction
system.cpu0.commit.op_class_0::FloatAdd             0      0.00%     56.67% # Class of committed instruction
system.cpu0.commit.op_class_0::FloatCmp             4      0.00%     56.67% # Class of committed instruction
system.cpu0.commit.op_class_0::FloatCvt            12      0.00%     56.67% # Class of committed instruction
system.cpu0.commit.op_class_0::FloatMult            0      0.00%     56.67% # Class of committed instruction
system.cpu0.commit.op_class_0::FloatMultAcc            0      0.00%     56.67% # Class of committed instruction
system.cpu0.commit.op_class_0::FloatDiv             2      0.00%     56.67% # Class of committed instruction
system.cpu0.commit.op_class_0::FloatMisc            4      0.00%     56.67% # Class of committed instruction
system.cpu0.commit.op_class_0::FloatSqrt            0      0.00%     56.67% # Class of committed instruction
system.cpu0.commit.op_class_0::SimdAdd              0      0.00%     56.67% # Class of committed instruction
system.cpu0.commit.op_class_0::SimdAddAcc            0      0.00%     56.67% # Class of committed instruction
system.cpu0.commit.op_class_0::SimdAlu              0      0.00%     56.67% # Class of committed instruction
system.cpu0.commit.op_class_0::SimdCmp              0      0.00%     56.67% # Class of committed instruction
system.cpu0.commit.op_class_0::SimdCvt              0      0.00%     56.67% # Class of committed instruction
system.cpu0.commit.op_class_0::SimdMisc             0      0.00%     56.67% # Class of committed instruction
system.cpu0.commit.op_class_0::SimdMult             0      0.00%     56.67% # Class of committed instruction
system.cpu0.commit.op_class_0::SimdMultAcc            0      0.00%     56.67% # Class of committed instruction
system.cpu0.commit.op_class_0::SimdShift            0      0.00%     56.67% # Class of committed instruction
system.cpu0.commit.op_class_0::SimdShiftAcc            0      0.00%     56.67% # Class of committed instruction
system.cpu0.commit.op_class_0::SimdDiv              0      0.00%     56.67% # Class of committed instruction
system.cpu0.commit.op_class_0::SimdSqrt             0      0.00%     56.67% # Class of committed instruction
system.cpu0.commit.op_class_0::SimdFloatAdd            0      0.00%     56.67% # Class of committed instruction
system.cpu0.commit.op_class_0::SimdFloatAlu            0      0.00%     56.67% # Class of committed instruction
system.cpu0.commit.op_class_0::SimdFloatCmp            0      0.00%     56.67% # Class of committed instruction
system.cpu0.commit.op_class_0::SimdFloatCvt            0      0.00%     56.67% # Class of committed instruction
system.cpu0.commit.op_class_0::SimdFloatDiv            0      0.00%     56.67% # Class of committed instruction
system.cpu0.commit.op_class_0::SimdFloatMisc            0      0.00%     56.67% # Class of committed instruction
system.cpu0.commit.op_class_0::SimdFloatMult            0      0.00%     56.67% # Class of committed instruction
system.cpu0.commit.op_class_0::SimdFloatMultAcc            0      0.00%     56.67% # Class of committed instruction
system.cpu0.commit.op_class_0::SimdFloatSqrt            0      0.00%     56.67% # Class of committed instruction
system.cpu0.commit.op_class_0::SimdReduceAdd            0      0.00%     56.67% # Class of committed instruction
system.cpu0.commit.op_class_0::SimdReduceAlu            0      0.00%     56.67% # Class of committed instruction
system.cpu0.commit.op_class_0::SimdReduceCmp            0      0.00%     56.67% # Class of committed instruction
system.cpu0.commit.op_class_0::SimdFloatReduceAdd            0      0.00%     56.67% # Class of committed instruction
system.cpu0.commit.op_class_0::SimdFloatReduceCmp            0      0.00%     56.67% # Class of committed instruction
system.cpu0.commit.op_class_0::SimdAes              0      0.00%     56.67% # Class of committed instruction
system.cpu0.commit.op_class_0::SimdAesMix            0      0.00%     56.67% # Class of committed instruction
system.cpu0.commit.op_class_0::SimdSha1Hash            0      0.00%     56.67% # Class of committed instruction
system.cpu0.commit.op_class_0::SimdSha1Hash2            0      0.00%     56.67% # Class of committed instruction
system.cpu0.commit.op_class_0::SimdSha256Hash            0      0.00%     56.67% # Class of committed instruction
system.cpu0.commit.op_class_0::SimdSha256Hash2            0      0.00%     56.67% # Class of committed instruction
system.cpu0.commit.op_class_0::SimdShaSigma2            0      0.00%     56.67% # Class of committed instruction
system.cpu0.commit.op_class_0::SimdShaSigma3            0      0.00%     56.67% # Class of committed instruction
system.cpu0.commit.op_class_0::SimdPredAlu            0      0.00%     56.67% # Class of committed instruction
system.cpu0.commit.op_class_0::MemRead      180969508     31.13%     87.80% # Class of committed instruction
system.cpu0.commit.op_class_0::MemWrite      70910840     12.20%    100.00% # Class of committed instruction
system.cpu0.commit.op_class_0::FloatMemRead            8      0.00%    100.00% # Class of committed instruction
system.cpu0.commit.op_class_0::FloatMemWrite           20      0.00%    100.00% # Class of committed instruction
system.cpu0.commit.op_class_0::IprAccess            0      0.00%    100.00% # Class of committed instruction
system.cpu0.commit.op_class_0::InstPrefetch            0      0.00%    100.00% # Class of committed instruction
system.cpu0.commit.op_class_0::total        581298577                       # Class of committed instruction
system.cpu0.commit.refs                     251880376                       # Number of memory references committed
system.cpu0.commit.swp_count                        0                       # Number of s/w prefetches committed
system.cpu0.commit.vec_insts                        0                       # Number of committed Vector instructions.
system.cpu0.committedInsts                  580279091                       # Number of Instructions Simulated
system.cpu0.committedOps                    581298577                       # Number of Ops (including micro ops) Simulated
system.cpu0.cpi                              3.214729                       # CPI: Cycles Per Instruction
system.cpu0.cpi_total                        3.214729                       # CPI: Total CPI of All Threads
system.cpu0.decode.BlockedCycles            184234647                       # Number of cycles decode is blocked
system.cpu0.decode.BranchMispred              2208707                       # Number of times decode detected a branch misprediction
system.cpu0.decode.BranchResolved            77309756                       # Number of times decode resolved a branch
system.cpu0.decode.DecodedInsts             631762685                       # Number of instructions handled by decode
system.cpu0.decode.IdleCycles               533271565                       # Number of cycles decode is idle
system.cpu0.decode.RunCycles                427502411                       # Number of cycles decode is running
system.cpu0.decode.SquashCycles               5051653                       # Number of cycles decode is squashing
system.cpu0.decode.SquashedInsts              7273402                       # Number of squashed instructions handled by decode
system.cpu0.decode.UnblockCycles              3663749                       # Number of cycles decode is unblocking
system.cpu0.dtb.accesses                            0                       # DTB accesses
system.cpu0.dtb.hits                                0                       # DTB hits
system.cpu0.dtb.misses                              0                       # DTB misses
system.cpu0.dtb.read_accesses                       0                       # DTB read accesses
system.cpu0.dtb.read_hits                           0                       # DTB read hits
system.cpu0.dtb.read_misses                         0                       # DTB read misses
system.cpu0.dtb.write_accesses                      0                       # DTB write accesses
system.cpu0.dtb.write_hits                          0                       # DTB write hits
system.cpu0.dtb.write_misses                        0                       # DTB write misses
system.cpu0.fetch.Branches                  155808526                       # Number of branches that fetch encountered
system.cpu0.fetch.CacheLines                111939248                       # Number of cache lines fetched
system.cpu0.fetch.Cycles                    623288848                       # Number of cycles fetch has run and was not squashing or blocked
system.cpu0.fetch.IcacheSquashes              1682994                       # Number of outstanding Icache misses that were squashed
system.cpu0.fetch.IcacheWaitRetryStallCycles           85                       # Number of stall cycles due to full MSHR
system.cpu0.fetch.Insts                     643557344                       # Number of instructions fetch has processed
system.cpu0.fetch.MiscStallCycles                 105                       # Number of cycles fetch has spent waiting on interrupts, or bad addresses, or out of MSHRs
system.cpu0.fetch.PendingTrapStallCycles          595                       # Number of stall cycles due to pending traps
system.cpu0.fetch.SquashCycles               14496694                       # Number of cycles fetch has spent squashing
system.cpu0.fetch.branchRate                 0.083524                       # Number of branch fetches per cycle
system.cpu0.fetch.icacheStallCycles         523186045                       # Number of cycles fetch is stalled on an Icache miss
system.cpu0.fetch.predictedBranches          88509057                       # Number of branches that fetch has predicted taken
system.cpu0.fetch.rate                       0.344990                       # Number of inst fetches per cycle
system.cpu0.fetch.rateDist::samples        1153724025                       # Number of instructions fetched each cycle (Total)
system.cpu0.fetch.rateDist::mean             0.558693                       # Number of instructions fetched each cycle (Total)
system.cpu0.fetch.rateDist::stdev            0.881926                       # Number of instructions fetched each cycle (Total)
system.cpu0.fetch.rateDist::underflows              0      0.00%      0.00% # Number of instructions fetched each cycle (Total)
system.cpu0.fetch.rateDist::0               702884305     60.92%     60.92% # Number of instructions fetched each cycle (Total)
system.cpu0.fetch.rateDist::1               334354207     28.98%     89.90% # Number of instructions fetched each cycle (Total)
system.cpu0.fetch.rateDist::2                60058960      5.21%     95.11% # Number of instructions fetched each cycle (Total)
system.cpu0.fetch.rateDist::3                44033153      3.82%     98.93% # Number of instructions fetched each cycle (Total)
system.cpu0.fetch.rateDist::4                 8111962      0.70%     99.63% # Number of instructions fetched each cycle (Total)
system.cpu0.fetch.rateDist::5                 2180215      0.19%     99.82% # Number of instructions fetched each cycle (Total)
system.cpu0.fetch.rateDist::6                   55890      0.00%     99.82% # Number of instructions fetched each cycle (Total)
system.cpu0.fetch.rateDist::7                 2041327      0.18%    100.00% # Number of instructions fetched each cycle (Total)
system.cpu0.fetch.rateDist::8                    4006      0.00%    100.00% # Number of instructions fetched each cycle (Total)
system.cpu0.fetch.rateDist::overflows               0      0.00%    100.00% # Number of instructions fetched each cycle (Total)
system.cpu0.fetch.rateDist::min_value               0                       # Number of instructions fetched each cycle (Total)
system.cpu0.fetch.rateDist::max_value               8                       # Number of instructions fetched each cycle (Total)
system.cpu0.fetch.rateDist::total          1153724025                       # Number of instructions fetched each cycle (Total)
system.cpu0.fp_regfile_reads                       44                       # number of floating regfile reads
system.cpu0.fp_regfile_writes                      22                       # number of floating regfile writes
system.cpu0.idleCycles                      711715726                       # Total number of cycles that the CPU has spent unscheduled due to idling
system.cpu0.iew.branchMispredicts             5114917                       # Number of branch mispredicts detected at execute
system.cpu0.iew.exec_branches               147367330                       # Number of branches executed
system.cpu0.iew.exec_nop                            0                       # number of nop insts executed
system.cpu0.iew.exec_rate                    0.326174                       # Inst execution rate
system.cpu0.iew.exec_refs                   267174651                       # number of memory reference insts executed
system.cpu0.iew.exec_stores                  75699273                       # Number of stores executed
system.cpu0.iew.exec_swp                            0                       # number of swp insts executed
system.cpu0.iew.iewBlockCycles              148212616                       # Number of cycles IEW is blocking
system.cpu0.iew.iewDispLoadInsts            193430598                       # Number of dispatched load instructions
system.cpu0.iew.iewDispNonSpecInsts           1021086                       # Number of dispatched non-speculative instructions
system.cpu0.iew.iewDispSquashedInsts          2829025                       # Number of squashed instructions skipped by dispatch
system.cpu0.iew.iewDispStoreInsts            76599153                       # Number of dispatched store instructions
system.cpu0.iew.iewDispatchedInsts          618703274                       # Number of instructions dispatched to IQ
system.cpu0.iew.iewExecLoadInsts            191475378                       # Number of load instructions executed
system.cpu0.iew.iewExecSquashedInsts          5026230                       # Number of squashed instructions skipped in execute
system.cpu0.iew.iewExecutedInsts            608458518                       # Number of executed instructions
system.cpu0.iew.iewIQFullEvents               1043480                       # Number of times the IQ has become full, causing a stall
system.cpu0.iew.iewIdleCycles                       0                       # Number of cycles IEW is idle
system.cpu0.iew.iewLSQFullEvents              7174070                       # Number of times the LSQ has become full, causing a stall
system.cpu0.iew.iewSquashCycles               5051653                       # Number of cycles IEW is squashing
system.cpu0.iew.iewUnblockCycles              9384779                       # Number of cycles IEW is unblocking
system.cpu0.iew.lsq.thread0.blockedLoads            0                       # Number of blocked loads due to partial load-store forwarding
system.cpu0.iew.lsq.thread0.cacheBlocked        80300                       # Number of times an access to memory failed due to the cache being blocked
system.cpu0.iew.lsq.thread0.forwLoads        10975378                       # Number of loads that had data forwarded from stores
system.cpu0.iew.lsq.thread0.ignoredResponses        29713                       # Number of memory responses ignored because the instruction is squashed
system.cpu0.iew.lsq.thread0.invAddrLoads            0                       # Number of loads ignored due to an invalid address
system.cpu0.iew.lsq.thread0.invAddrSwpfs            0                       # Number of software prefetches ignored due to an invalid address
system.cpu0.iew.lsq.thread0.memOrderViolation         6421                       # Number of memory ordering violations
system.cpu0.iew.lsq.thread0.rescheduledLoads      2456563                       # Number of loads that were rescheduled
system.cpu0.iew.lsq.thread0.squashedLoads     13479285                       # Number of loads squashed
system.cpu0.iew.lsq.thread0.squashedStores      4670090                       # Number of stores squashed
system.cpu0.iew.memOrderViolationEvents          6421                       # Number of memory order violations
system.cpu0.iew.predictedNotTakenIncorrect       863206                       # Number of branches that were predicted not taken incorrectly
system.cpu0.iew.predictedTakenIncorrect       4251711                       # Number of branches that were predicted taken incorrectly
system.cpu0.iew.wb_consumers                271379271                       # num instructions consuming a value
system.cpu0.iew.wb_count                    603349301                       # cumulative count of insts written-back
system.cpu0.iew.wb_fanout                    0.845200                       # average fanout of values written-back
system.cpu0.iew.wb_producers                229369877                       # num instructions producing a value
system.cpu0.iew.wb_rate                      0.323435                       # insts written-back per cycle
system.cpu0.iew.wb_sent                     603399029                       # cumulative count of insts sent to commit
system.cpu0.int_regfile_reads               743248037                       # number of integer regfile reads
system.cpu0.int_regfile_writes              384977776                       # number of integer regfile writes
system.cpu0.ipc                              0.311068                       # IPC: Instructions Per Cycle
system.cpu0.ipc_total                        0.311068                       # IPC: Total IPC of All Threads
system.cpu0.iq.FU_type_0::No_OpClass          2038539      0.33%      0.33% # Type of FU issued
system.cpu0.iq.FU_type_0::IntAlu            336855688     54.91%     55.24% # Type of FU issued
system.cpu0.iq.FU_type_0::IntMult             4144598      0.68%     55.92% # Type of FU issued
system.cpu0.iq.FU_type_0::IntDiv              1018204      0.17%     56.08% # Type of FU issued
system.cpu0.iq.FU_type_0::FloatAdd                  0      0.00%     56.08% # Type of FU issued
system.cpu0.iq.FU_type_0::FloatCmp                  4      0.00%     56.08% # Type of FU issued
system.cpu0.iq.FU_type_0::FloatCvt                 12      0.00%     56.08% # Type of FU issued
system.cpu0.iq.FU_type_0::FloatMult                 0      0.00%     56.08% # Type of FU issued
system.cpu0.iq.FU_type_0::FloatMultAcc              0      0.00%     56.08% # Type of FU issued
system.cpu0.iq.FU_type_0::FloatDiv                  2      0.00%     56.08% # Type of FU issued
system.cpu0.iq.FU_type_0::FloatMisc                 4      0.00%     56.08% # Type of FU issued
system.cpu0.iq.FU_type_0::FloatSqrt                 0      0.00%     56.08% # Type of FU issued
system.cpu0.iq.FU_type_0::SimdAdd                   0      0.00%     56.08% # Type of FU issued
system.cpu0.iq.FU_type_0::SimdAddAcc                0      0.00%     56.08% # Type of FU issued
system.cpu0.iq.FU_type_0::SimdAlu                   0      0.00%     56.08% # Type of FU issued
system.cpu0.iq.FU_type_0::SimdCmp                   0      0.00%     56.08% # Type of FU issued
system.cpu0.iq.FU_type_0::SimdCvt                   0      0.00%     56.08% # Type of FU issued
system.cpu0.iq.FU_type_0::SimdMisc                  0      0.00%     56.08% # Type of FU issued
system.cpu0.iq.FU_type_0::SimdMult                  0      0.00%     56.08% # Type of FU issued
system.cpu0.iq.FU_type_0::SimdMultAcc               0      0.00%     56.08% # Type of FU issued
system.cpu0.iq.FU_type_0::SimdShift                 0      0.00%     56.08% # Type of FU issued
system.cpu0.iq.FU_type_0::SimdShiftAcc              0      0.00%     56.08% # Type of FU issued
system.cpu0.iq.FU_type_0::SimdDiv                   0      0.00%     56.08% # Type of FU issued
system.cpu0.iq.FU_type_0::SimdSqrt                  0      0.00%     56.08% # Type of FU issued
system.cpu0.iq.FU_type_0::SimdFloatAdd              0      0.00%     56.08% # Type of FU issued
system.cpu0.iq.FU_type_0::SimdFloatAlu              0      0.00%     56.08% # Type of FU issued
system.cpu0.iq.FU_type_0::SimdFloatCmp              0      0.00%     56.08% # Type of FU issued
system.cpu0.iq.FU_type_0::SimdFloatCvt              0      0.00%     56.08% # Type of FU issued
system.cpu0.iq.FU_type_0::SimdFloatDiv              0      0.00%     56.08% # Type of FU issued
system.cpu0.iq.FU_type_0::SimdFloatMisc             0      0.00%     56.08% # Type of FU issued
system.cpu0.iq.FU_type_0::SimdFloatMult             0      0.00%     56.08% # Type of FU issued
system.cpu0.iq.FU_type_0::SimdFloatMultAcc            0      0.00%     56.08% # Type of FU issued
system.cpu0.iq.FU_type_0::SimdFloatSqrt             0      0.00%     56.08% # Type of FU issued
system.cpu0.iq.FU_type_0::SimdReduceAdd             0      0.00%     56.08% # Type of FU issued
system.cpu0.iq.FU_type_0::SimdReduceAlu             0      0.00%     56.08% # Type of FU issued
system.cpu0.iq.FU_type_0::SimdReduceCmp             0      0.00%     56.08% # Type of FU issued
system.cpu0.iq.FU_type_0::SimdFloatReduceAdd            0      0.00%     56.08% # Type of FU issued
system.cpu0.iq.FU_type_0::SimdFloatReduceCmp            0      0.00%     56.08% # Type of FU issued
system.cpu0.iq.FU_type_0::SimdAes                   0      0.00%     56.08% # Type of FU issued
system.cpu0.iq.FU_type_0::SimdAesMix                0      0.00%     56.08% # Type of FU issued
system.cpu0.iq.FU_type_0::SimdSha1Hash              0      0.00%     56.08% # Type of FU issued
system.cpu0.iq.FU_type_0::SimdSha1Hash2             0      0.00%     56.08% # Type of FU issued
system.cpu0.iq.FU_type_0::SimdSha256Hash            0      0.00%     56.08% # Type of FU issued
system.cpu0.iq.FU_type_0::SimdSha256Hash2            0      0.00%     56.08% # Type of FU issued
system.cpu0.iq.FU_type_0::SimdShaSigma2             0      0.00%     56.08% # Type of FU issued
system.cpu0.iq.FU_type_0::SimdShaSigma3             0      0.00%     56.08% # Type of FU issued
system.cpu0.iq.FU_type_0::SimdPredAlu               0      0.00%     56.08% # Type of FU issued
system.cpu0.iq.FU_type_0::MemRead           194556766     31.71%     87.80% # Type of FU issued
system.cpu0.iq.FU_type_0::MemWrite           74870902     12.20%    100.00% # Type of FU issued
system.cpu0.iq.FU_type_0::FloatMemRead             10      0.00%    100.00% # Type of FU issued
system.cpu0.iq.FU_type_0::FloatMemWrite            20      0.00%    100.00% # Type of FU issued
system.cpu0.iq.FU_type_0::IprAccess                 0      0.00%    100.00% # Type of FU issued
system.cpu0.iq.FU_type_0::InstPrefetch              0      0.00%    100.00% # Type of FU issued
system.cpu0.iq.FU_type_0::total             613484749                       # Type of FU issued
system.cpu0.iq.fp_alu_accesses                     54                       # Number of floating point alu accesses
system.cpu0.iq.fp_inst_queue_reads                106                       # Number of floating instruction queue reads
system.cpu0.iq.fp_inst_queue_wakeup_accesses           50                       # Number of floating instruction queue wakeup accesses
system.cpu0.iq.fp_inst_queue_writes                54                       # Number of floating instruction queue writes
system.cpu0.iq.fu_busy_cnt                    2229119                       # FU busy when requested
system.cpu0.iq.fu_busy_rate                  0.003634                       # FU busy rate (busy events/executed inst)
system.cpu0.iq.fu_full::No_OpClass                  0      0.00%      0.00% # attempts to use FU when none available
system.cpu0.iq.fu_full::IntAlu                 237699     10.66%     10.66% # attempts to use FU when none available
system.cpu0.iq.fu_full::IntMult                     0      0.00%     10.66% # attempts to use FU when none available
system.cpu0.iq.fu_full::IntDiv                      0      0.00%     10.66% # attempts to use FU when none available
system.cpu0.iq.fu_full::FloatAdd                    0      0.00%     10.66% # attempts to use FU when none available
system.cpu0.iq.fu_full::FloatCmp                    0      0.00%     10.66% # attempts to use FU when none available
system.cpu0.iq.fu_full::FloatCvt                    0      0.00%     10.66% # attempts to use FU when none available
system.cpu0.iq.fu_full::FloatMult                   0      0.00%     10.66% # attempts to use FU when none available
system.cpu0.iq.fu_full::FloatMultAcc                0      0.00%     10.66% # attempts to use FU when none available
system.cpu0.iq.fu_full::FloatDiv                    0      0.00%     10.66% # attempts to use FU when none available
system.cpu0.iq.fu_full::FloatMisc                   0      0.00%     10.66% # attempts to use FU when none available
system.cpu0.iq.fu_full::FloatSqrt                   0      0.00%     10.66% # attempts to use FU when none available
system.cpu0.iq.fu_full::SimdAdd                     0      0.00%     10.66% # attempts to use FU when none available
system.cpu0.iq.fu_full::SimdAddAcc                  0      0.00%     10.66% # attempts to use FU when none available
system.cpu0.iq.fu_full::SimdAlu                     0      0.00%     10.66% # attempts to use FU when none available
system.cpu0.iq.fu_full::SimdCmp                     0      0.00%     10.66% # attempts to use FU when none available
system.cpu0.iq.fu_full::SimdCvt                     0      0.00%     10.66% # attempts to use FU when none available
system.cpu0.iq.fu_full::SimdMisc                    0      0.00%     10.66% # attempts to use FU when none available
system.cpu0.iq.fu_full::SimdMult                    0      0.00%     10.66% # attempts to use FU when none available
system.cpu0.iq.fu_full::SimdMultAcc                 0      0.00%     10.66% # attempts to use FU when none available
system.cpu0.iq.fu_full::SimdShift                   0      0.00%     10.66% # attempts to use FU when none available
system.cpu0.iq.fu_full::SimdShiftAcc                0      0.00%     10.66% # attempts to use FU when none available
system.cpu0.iq.fu_full::SimdDiv                     0      0.00%     10.66% # attempts to use FU when none available
system.cpu0.iq.fu_full::SimdSqrt                    0      0.00%     10.66% # attempts to use FU when none available
system.cpu0.iq.fu_full::SimdFloatAdd                0      0.00%     10.66% # attempts to use FU when none available
system.cpu0.iq.fu_full::SimdFloatAlu                0      0.00%     10.66% # attempts to use FU when none available
system.cpu0.iq.fu_full::SimdFloatCmp                0      0.00%     10.66% # attempts to use FU when none available
system.cpu0.iq.fu_full::SimdFloatCvt                0      0.00%     10.66% # attempts to use FU when none available
system.cpu0.iq.fu_full::SimdFloatDiv                0      0.00%     10.66% # attempts to use FU when none available
system.cpu0.iq.fu_full::SimdFloatMisc               0      0.00%     10.66% # attempts to use FU when none available
system.cpu0.iq.fu_full::SimdFloatMult               0      0.00%     10.66% # attempts to use FU when none available
system.cpu0.iq.fu_full::SimdFloatMultAcc            0      0.00%     10.66% # attempts to use FU when none available
system.cpu0.iq.fu_full::SimdFloatSqrt               0      0.00%     10.66% # attempts to use FU when none available
system.cpu0.iq.fu_full::SimdReduceAdd               0      0.00%     10.66% # attempts to use FU when none available
system.cpu0.iq.fu_full::SimdReduceAlu               0      0.00%     10.66% # attempts to use FU when none available
system.cpu0.iq.fu_full::SimdReduceCmp               0      0.00%     10.66% # attempts to use FU when none available
system.cpu0.iq.fu_full::SimdFloatReduceAdd            0      0.00%     10.66% # attempts to use FU when none available
system.cpu0.iq.fu_full::SimdFloatReduceCmp            0      0.00%     10.66% # attempts to use FU when none available
system.cpu0.iq.fu_full::SimdAes                     0      0.00%     10.66% # attempts to use FU when none available
system.cpu0.iq.fu_full::SimdAesMix                  0      0.00%     10.66% # attempts to use FU when none available
system.cpu0.iq.fu_full::SimdSha1Hash                0      0.00%     10.66% # attempts to use FU when none available
system.cpu0.iq.fu_full::SimdSha1Hash2               0      0.00%     10.66% # attempts to use FU when none available
system.cpu0.iq.fu_full::SimdSha256Hash              0      0.00%     10.66% # attempts to use FU when none available
system.cpu0.iq.fu_full::SimdSha256Hash2             0      0.00%     10.66% # attempts to use FU when none available
system.cpu0.iq.fu_full::SimdShaSigma2               0      0.00%     10.66% # attempts to use FU when none available
system.cpu0.iq.fu_full::SimdShaSigma3               0      0.00%     10.66% # attempts to use FU when none available
system.cpu0.iq.fu_full::SimdPredAlu                 0      0.00%     10.66% # attempts to use FU when none available
system.cpu0.iq.fu_full::MemRead               1855141     83.22%     93.89% # attempts to use FU when none available
system.cpu0.iq.fu_full::MemWrite               136277      6.11%    100.00% # attempts to use FU when none available
system.cpu0.iq.fu_full::FloatMemRead                0      0.00%    100.00% # attempts to use FU when none available
system.cpu0.iq.fu_full::FloatMemWrite               2      0.00%    100.00% # attempts to use FU when none available
system.cpu0.iq.fu_full::IprAccess                   0      0.00%    100.00% # attempts to use FU when none available
system.cpu0.iq.fu_full::InstPrefetch                0      0.00%    100.00% # attempts to use FU when none available
system.cpu0.iq.int_alu_accesses             613675275                       # Number of integer alu accesses
system.cpu0.iq.int_inst_queue_reads        2383019195                       # Number of integer instruction queue reads
system.cpu0.iq.int_inst_queue_wakeup_accesses    603349251                       # Number of integer instruction queue wakeup accesses
system.cpu0.iq.int_inst_queue_writes        656113528                       # Number of integer instruction queue writes
system.cpu0.iq.iqInstsAdded                 615644432                       # Number of instructions added to the IQ (excludes non-spec)
system.cpu0.iq.iqInstsIssued                613484749                       # Number of instructions issued
system.cpu0.iq.iqNonSpecInstsAdded            3058842                       # Number of non-speculative instructions added to the IQ
system.cpu0.iq.iqSquashedInstsExamined       37404693                       # Number of squashed instructions iterated over during squash; mainly for profiling
system.cpu0.iq.iqSquashedInstsIssued            96660                       # Number of squashed instructions issued
system.cpu0.iq.iqSquashedNonSpecRemoved           356                       # Number of squashed non-spec instructions that were removed
system.cpu0.iq.iqSquashedOperandsExamined     16289073                       # Number of squashed operands that are examined and possibly removed from graph
system.cpu0.iq.issued_per_cycle::samples   1153724025                       # Number of insts issued each cycle
system.cpu0.iq.issued_per_cycle::mean        0.531743                       # Number of insts issued each cycle
system.cpu0.iq.issued_per_cycle::stdev       0.812928                       # Number of insts issued each cycle
system.cpu0.iq.issued_per_cycle::underflows            0      0.00%      0.00% # Number of insts issued each cycle
system.cpu0.iq.issued_per_cycle::0          714202804     61.90%     61.90% # Number of insts issued each cycle
system.cpu0.iq.issued_per_cycle::1          309549833     26.83%     88.73% # Number of insts issued each cycle
system.cpu0.iq.issued_per_cycle::2          100358014      8.70%     97.43% # Number of insts issued each cycle
system.cpu0.iq.issued_per_cycle::3           18851992      1.63%     99.07% # Number of insts issued each cycle
system.cpu0.iq.issued_per_cycle::4            8344832      0.72%     99.79% # Number of insts issued each cycle
system.cpu0.iq.issued_per_cycle::5            1557305      0.13%     99.93% # Number of insts issued each cycle
system.cpu0.iq.issued_per_cycle::6             609829      0.05%     99.98% # Number of insts issued each cycle
system.cpu0.iq.issued_per_cycle::7             157243      0.01%     99.99% # Number of insts issued each cycle
system.cpu0.iq.issued_per_cycle::8              92173      0.01%    100.00% # Number of insts issued each cycle
system.cpu0.iq.issued_per_cycle::overflows            0      0.00%    100.00% # Number of insts issued each cycle
system.cpu0.iq.issued_per_cycle::min_value            0                       # Number of insts issued each cycle
system.cpu0.iq.issued_per_cycle::max_value            8                       # Number of insts issued each cycle
system.cpu0.iq.issued_per_cycle::total     1153724025                       # Number of insts issued each cycle
system.cpu0.iq.rate                          0.328869                       # Inst issue rate
system.cpu0.iq.vec_alu_accesses                     0                       # Number of vector alu accesses
system.cpu0.iq.vec_inst_queue_reads                 0                       # Number of vector instruction queue reads
system.cpu0.iq.vec_inst_queue_wakeup_accesses            0                       # Number of vector instruction queue wakeup accesses
system.cpu0.iq.vec_inst_queue_writes                0                       # Number of vector instruction queue writes
system.cpu0.itb.accesses                            0                       # DTB accesses
system.cpu0.itb.hits                                0                       # DTB hits
system.cpu0.itb.misses                              0                       # DTB misses
system.cpu0.itb.read_accesses                       0                       # DTB read accesses
system.cpu0.itb.read_hits                           0                       # DTB read hits
system.cpu0.itb.read_misses                         0                       # DTB read misses
system.cpu0.itb.write_accesses                      0                       # DTB write accesses
system.cpu0.itb.write_hits                          0                       # DTB write hits
system.cpu0.itb.write_misses                        0                       # DTB write misses
system.cpu0.memDep0.conflictingLoads         15677287                       # Number of conflicting loads.
system.cpu0.memDep0.conflictingStores         2832649                       # Number of conflicting stores.
system.cpu0.memDep0.insertedLoads           193430598                       # Number of loads inserted to the mem dependence unit.
system.cpu0.memDep0.insertedStores           76599153                       # Number of stores inserted to the mem dependence unit.
system.cpu0.misc_regfile_reads                    882                       # number of misc regfile reads
system.cpu0.misc_regfile_writes                    22                       # number of misc regfile writes
system.cpu0.numCycles                      1865439751                       # number of cpu cycles simulated
system.cpu0.numWorkItemsCompleted                   0                       # number of work items this cpu completed
system.cpu0.numWorkItemsStarted                     0                       # number of work items this cpu started
system.cpu0.quiesceCycles                    11734480                       # Total number of cycles that CPU has spent quiesced or waiting for an interrupt
system.cpu0.rename.BlockCycles              164740510                       # Number of cycles rename is blocking
system.cpu0.rename.CommittedMaps            370565778                       # Number of HB maps that are committed
system.cpu0.rename.IQFullEvents               6930929                       # Number of times rename has blocked due to IQ full
system.cpu0.rename.IdleCycles               539484765                       # Number of cycles rename is idle
system.cpu0.rename.LQFullEvents               6050886                       # Number of times rename has blocked due to LQ full
system.cpu0.rename.ROBFullEvents                 9464                       # Number of times rename has blocked due to ROB full
system.cpu0.rename.RenameLookups            764605244                       # Number of register rename lookups that rename has made
system.cpu0.rename.RenamedInsts             625737321                       # Number of instructions processed by rename
system.cpu0.rename.RenamedOperands          401073813                       # Number of destination operands rename has renamed
system.cpu0.rename.RunCycles                424336978                       # Number of cycles rename is running
system.cpu0.rename.SQFullEvents               6932760                       # Number of times rename has blocked due to SQ full
system.cpu0.rename.SquashCycles               5051653                       # Number of cycles rename is squashing
system.cpu0.rename.UnblockCycles             20026327                       # Number of cycles rename is unblocking
system.cpu0.rename.UndoneMaps                30508030                       # Number of HB maps that are undone due to squashing
system.cpu0.rename.fp_rename_lookups               44                       # Number of floating rename lookups
system.cpu0.rename.int_rename_lookups       764605200                       # Number of integer rename lookups
system.cpu0.rename.serializeStallCycles         83792                       # count of cycles rename stalled for serializing inst
system.cpu0.rename.serializingInsts              2823                       # count of serializing insts renamed
system.cpu0.rename.skidInsts                 15275026                       # count of insts added to the skid buffer
system.cpu0.rename.tempSerializingInsts          2778                       # count of temporary serializing insts renamed
system.cpu0.rob.rob_reads                  1744404917                       # The number of ROB reads
system.cpu0.rob.rob_writes                 1244884920                       # The number of ROB writes
system.cpu0.timesIdled                       20739977                       # Number of times that the entire CPU went into an idle state and unscheduled itself
system.cpu0.workload.numSyscalls                  849                       # Number of system calls
system.cpu1.branchPred.BTBCorrect                   0                       # Number of correct BTB predictions (this stat may not work properly.
system.cpu1.branchPred.BTBHitPct            73.903540                       # BTB Hit Percentage
system.cpu1.branchPred.BTBHits                4551453                       # Number of BTB hits
system.cpu1.branchPred.BTBLookups             6158640                       # Number of BTB lookups
system.cpu1.branchPred.RASInCorrect                 0                       # Number of incorrect RAS predictions.
system.cpu1.branchPred.condIncorrect           818200                       # Number of conditional branches incorrect
system.cpu1.branchPred.condPredicted          7814475                       # Number of conditional branches predicted
system.cpu1.branchPred.indirectHits            267848                       # Number of indirect target hits.
system.cpu1.branchPred.indirectLookups         402874                       # Number of indirect predictor lookups.
system.cpu1.branchPred.indirectMisses          135026                       # Number of indirect misses.
system.cpu1.branchPred.lookups                8796862                       # Number of BP lookups
system.cpu1.branchPred.usedRAS                      0                       # Number of times the RAS was used to get a target.
system.cpu1.branchPredindirectMispredicted         3242                       # Number of mispredicted indirect branches.
system.cpu1.commit.amos                       1017927                       # Number of atomic instructions committed
system.cpu1.commit.branchMispredicts           485468                       # The number of times a branch was mispredicted
system.cpu1.commit.branches                   7095502                       # Number of branches committed
system.cpu1.commit.bw_lim_events               831756                       # number cycles where commit BW limit reached
system.cpu1.commit.commitNonSpecStalls        3054451                       # The number of times commit has been forced to stall to communicate backwards
system.cpu1.commit.commitSquashedInsts        4899267                       # The number of squashed insts skipped by commit
system.cpu1.commit.committedInsts            32262841                       # Number of instructions committed
system.cpu1.commit.committedOps              33280947                       # Number of ops (including micro ops) committed
system.cpu1.commit.committed_per_cycle::samples    191577129                       # Number of insts commited each cycle
system.cpu1.commit.committed_per_cycle::mean     0.173721                       # Number of insts commited each cycle
system.cpu1.commit.committed_per_cycle::stdev     0.829534                       # Number of insts commited each cycle
system.cpu1.commit.committed_per_cycle::underflows            0      0.00%      0.00% # Number of insts commited each cycle
system.cpu1.commit.committed_per_cycle::0    177824352     92.82%     92.82% # Number of insts commited each cycle
system.cpu1.commit.committed_per_cycle::1      6893316      3.60%     96.42% # Number of insts commited each cycle
system.cpu1.commit.committed_per_cycle::2      2345783      1.22%     97.64% # Number of insts commited each cycle
system.cpu1.commit.committed_per_cycle::3      1988747      1.04%     98.68% # Number of insts commited each cycle
system.cpu1.commit.committed_per_cycle::4       499884      0.26%     98.94% # Number of insts commited each cycle
system.cpu1.commit.committed_per_cycle::5       166150      0.09%     99.03% # Number of insts commited each cycle
system.cpu1.commit.committed_per_cycle::6       944497      0.49%     99.52% # Number of insts commited each cycle
system.cpu1.commit.committed_per_cycle::7        82644      0.04%     99.57% # Number of insts commited each cycle
system.cpu1.commit.committed_per_cycle::8       831756      0.43%    100.00% # Number of insts commited each cycle
system.cpu1.commit.committed_per_cycle::overflows            0      0.00%    100.00% # Number of insts commited each cycle
system.cpu1.commit.committed_per_cycle::min_value            0                       # Number of insts commited each cycle
system.cpu1.commit.committed_per_cycle::max_value            8                       # Number of insts commited each cycle
system.cpu1.commit.committed_per_cycle::total    191577129                       # Number of insts commited each cycle
system.cpu1.commit.fp_insts                        12                       # Number of committed floating point instructions.
system.cpu1.commit.function_calls              320816                       # Number of function calls committed.
system.cpu1.commit.int_insts                 31047610                       # Number of committed integer instructions.
system.cpu1.commit.loads                      9248525                       # Number of loads committed
system.cpu1.commit.membars                    2035978                       # Number of memory barriers committed
system.cpu1.commit.op_class_0::No_OpClass      2035978      6.12%      6.12% # Class of committed instruction
system.cpu1.commit.op_class_0::IntAlu        19082555     57.34%     63.46% # Class of committed instruction
system.cpu1.commit.op_class_0::IntMult             42      0.00%     63.46% # Class of committed instruction
system.cpu1.commit.op_class_0::IntDiv              84      0.00%     63.46% # Class of committed instruction
system.cpu1.commit.op_class_0::FloatAdd             0      0.00%     63.46% # Class of committed instruction
system.cpu1.commit.op_class_0::FloatCmp             0      0.00%     63.46% # Class of committed instruction
system.cpu1.commit.op_class_0::FloatCvt             0      0.00%     63.46% # Class of committed instruction
system.cpu1.commit.op_class_0::FloatMult            0      0.00%     63.46% # Class of committed instruction
system.cpu1.commit.op_class_0::FloatMultAcc            0      0.00%     63.46% # Class of committed instruction
system.cpu1.commit.op_class_0::FloatDiv             0      0.00%     63.46% # Class of committed instruction
system.cpu1.commit.op_class_0::FloatMisc            0      0.00%     63.46% # Class of committed instruction
system.cpu1.commit.op_class_0::FloatSqrt            0      0.00%     63.46% # Class of committed instruction
system.cpu1.commit.op_class_0::SimdAdd              0      0.00%     63.46% # Class of committed instruction
system.cpu1.commit.op_class_0::SimdAddAcc            0      0.00%     63.46% # Class of committed instruction
system.cpu1.commit.op_class_0::SimdAlu              0      0.00%     63.46% # Class of committed instruction
system.cpu1.commit.op_class_0::SimdCmp              0      0.00%     63.46% # Class of committed instruction
system.cpu1.commit.op_class_0::SimdCvt              0      0.00%     63.46% # Class of committed instruction
system.cpu1.commit.op_class_0::SimdMisc             0      0.00%     63.46% # Class of committed instruction
system.cpu1.commit.op_class_0::SimdMult             0      0.00%     63.46% # Class of committed instruction
system.cpu1.commit.op_class_0::SimdMultAcc            0      0.00%     63.46% # Class of committed instruction
system.cpu1.commit.op_class_0::SimdShift            0      0.00%     63.46% # Class of committed instruction
system.cpu1.commit.op_class_0::SimdShiftAcc            0      0.00%     63.46% # Class of committed instruction
system.cpu1.commit.op_class_0::SimdDiv              0      0.00%     63.46% # Class of committed instruction
system.cpu1.commit.op_class_0::SimdSqrt             0      0.00%     63.46% # Class of committed instruction
system.cpu1.commit.op_class_0::SimdFloatAdd            0      0.00%     63.46% # Class of committed instruction
system.cpu1.commit.op_class_0::SimdFloatAlu            0      0.00%     63.46% # Class of committed instruction
system.cpu1.commit.op_class_0::SimdFloatCmp            0      0.00%     63.46% # Class of committed instruction
system.cpu1.commit.op_class_0::SimdFloatCvt            0      0.00%     63.46% # Class of committed instruction
system.cpu1.commit.op_class_0::SimdFloatDiv            0      0.00%     63.46% # Class of committed instruction
system.cpu1.commit.op_class_0::SimdFloatMisc            0      0.00%     63.46% # Class of committed instruction
system.cpu1.commit.op_class_0::SimdFloatMult            0      0.00%     63.46% # Class of committed instruction
system.cpu1.commit.op_class_0::SimdFloatMultAcc            0      0.00%     63.46% # Class of committed instruction
system.cpu1.commit.op_class_0::SimdFloatSqrt            0      0.00%     63.46% # Class of committed instruction
system.cpu1.commit.op_class_0::SimdReduceAdd            0      0.00%     63.46% # Class of committed instruction
system.cpu1.commit.op_class_0::SimdReduceAlu            0      0.00%     63.46% # Class of committed instruction
system.cpu1.commit.op_class_0::SimdReduceCmp            0      0.00%     63.46% # Class of committed instruction
system.cpu1.commit.op_class_0::SimdFloatReduceAdd            0      0.00%     63.46% # Class of committed instruction
system.cpu1.commit.op_class_0::SimdFloatReduceCmp            0      0.00%     63.46% # Class of committed instruction
system.cpu1.commit.op_class_0::SimdAes              0      0.00%     63.46% # Class of committed instruction
system.cpu1.commit.op_class_0::SimdAesMix            0      0.00%     63.46% # Class of committed instruction
system.cpu1.commit.op_class_0::SimdSha1Hash            0      0.00%     63.46% # Class of committed instruction
system.cpu1.commit.op_class_0::SimdSha1Hash2            0      0.00%     63.46% # Class of committed instruction
system.cpu1.commit.op_class_0::SimdSha256Hash            0      0.00%     63.46% # Class of committed instruction
system.cpu1.commit.op_class_0::SimdSha256Hash2            0      0.00%     63.46% # Class of committed instruction
system.cpu1.commit.op_class_0::SimdShaSigma2            0      0.00%     63.46% # Class of committed instruction
system.cpu1.commit.op_class_0::SimdShaSigma3            0      0.00%     63.46% # Class of committed instruction
system.cpu1.commit.op_class_0::SimdPredAlu            0      0.00%     63.46% # Class of committed instruction
system.cpu1.commit.op_class_0::MemRead       10266452     30.85%     94.30% # Class of committed instruction
system.cpu1.commit.op_class_0::MemWrite       1895824      5.70%    100.00% # Class of committed instruction
system.cpu1.commit.op_class_0::FloatMemRead            0      0.00%    100.00% # Class of committed instruction
system.cpu1.commit.op_class_0::FloatMemWrite           12      0.00%    100.00% # Class of committed instruction
system.cpu1.commit.op_class_0::IprAccess            0      0.00%    100.00% # Class of committed instruction
system.cpu1.commit.op_class_0::InstPrefetch            0      0.00%    100.00% # Class of committed instruction
system.cpu1.commit.op_class_0::total         33280947                       # Class of committed instruction
system.cpu1.commit.refs                      12162288                       # Number of memory references committed
system.cpu1.commit.swp_count                        0                       # Number of s/w prefetches committed
system.cpu1.commit.vec_insts                        0                       # Number of committed Vector instructions.
system.cpu1.committedInsts                   32262841                       # Number of Instructions Simulated
system.cpu1.committedOps                     33280947                       # Number of Ops (including micro ops) Simulated
system.cpu1.cpi                              5.971235                       # CPI: Cycles Per Instruction
system.cpu1.cpi_total                        5.971235                       # CPI: Total CPI of All Threads
system.cpu1.decode.BlockedCycles            171397689                       # Number of cycles decode is blocked
system.cpu1.decode.BranchMispred               336307                       # Number of times decode detected a branch misprediction
system.cpu1.decode.BranchResolved             4393225                       # Number of times decode resolved a branch
system.cpu1.decode.DecodedInsts              39936657                       # Number of instructions handled by decode
system.cpu1.decode.IdleCycles                 5854614                       # Number of cycles decode is idle
system.cpu1.decode.RunCycles                 12372494                       # Number of cycles decode is running
system.cpu1.decode.SquashCycles                485662                       # Number of cycles decode is squashing
system.cpu1.decode.SquashedInsts               618408                       # Number of squashed instructions handled by decode
system.cpu1.decode.UnblockCycles              2345803                       # Number of cycles decode is unblocking
system.cpu1.dtb.accesses                            0                       # DTB accesses
system.cpu1.dtb.hits                                0                       # DTB hits
system.cpu1.dtb.misses                              0                       # DTB misses
system.cpu1.dtb.read_accesses                       0                       # DTB read accesses
system.cpu1.dtb.read_hits                           0                       # DTB read hits
system.cpu1.dtb.read_misses                         0                       # DTB read misses
system.cpu1.dtb.write_accesses                      0                       # DTB write accesses
system.cpu1.dtb.write_hits                          0                       # DTB write hits
system.cpu1.dtb.write_misses                        0                       # DTB write misses
system.cpu1.fetch.Branches                    8796862                       # Number of branches that fetch encountered
system.cpu1.fetch.CacheLines                  5183008                       # Number of cache lines fetched
system.cpu1.fetch.Cycles                    186016094                       # Number of cycles fetch has run and was not squashing or blocked
system.cpu1.fetch.IcacheSquashes                58703                       # Number of outstanding Icache misses that were squashed
system.cpu1.fetch.Insts                      40776033                       # Number of instructions fetch has processed
system.cpu1.fetch.MiscStallCycles                   1                       # Number of cycles fetch has spent waiting on interrupts, or bad addresses, or out of MSHRs
system.cpu1.fetch.SquashCycles                1636788                       # Number of cycles fetch has spent squashing
system.cpu1.fetch.branchRate                 0.045663                       # Number of branch fetches per cycle
system.cpu1.fetch.icacheStallCycles           5621773                       # Number of cycles fetch is stalled on an Icache miss
system.cpu1.fetch.predictedBranches           4819301                       # Number of branches that fetch has predicted taken
system.cpu1.fetch.rate                       0.211660                       # Number of inst fetches per cycle
system.cpu1.fetch.rateDist::samples         192456262                       # Number of instructions fetched each cycle (Total)
system.cpu1.fetch.rateDist::mean             0.217164                       # Number of instructions fetched each cycle (Total)
system.cpu1.fetch.rateDist::stdev            0.666879                       # Number of instructions fetched each cycle (Total)
system.cpu1.fetch.rateDist::underflows              0      0.00%      0.00% # Number of instructions fetched each cycle (Total)
system.cpu1.fetch.rateDist::0               167852566     87.22%     87.22% # Number of instructions fetched each cycle (Total)
system.cpu1.fetch.rateDist::1                14172783      7.36%     94.58% # Number of instructions fetched each cycle (Total)
system.cpu1.fetch.rateDist::2                 5657824      2.94%     97.52% # Number of instructions fetched each cycle (Total)
system.cpu1.fetch.rateDist::3                 3280363      1.70%     99.22% # Number of instructions fetched each cycle (Total)
system.cpu1.fetch.rateDist::4                 1002387      0.52%     99.75% # Number of instructions fetched each cycle (Total)
system.cpu1.fetch.rateDist::5                  487010      0.25%    100.00% # Number of instructions fetched each cycle (Total)
system.cpu1.fetch.rateDist::6                    3036      0.00%    100.00% # Number of instructions fetched each cycle (Total)
system.cpu1.fetch.rateDist::7                     138      0.00%    100.00% # Number of instructions fetched each cycle (Total)
system.cpu1.fetch.rateDist::8                     155      0.00%    100.00% # Number of instructions fetched each cycle (Total)
system.cpu1.fetch.rateDist::overflows               0      0.00%    100.00% # Number of instructions fetched each cycle (Total)
system.cpu1.fetch.rateDist::min_value               0                       # Number of instructions fetched each cycle (Total)
system.cpu1.fetch.rateDist::max_value               8                       # Number of instructions fetched each cycle (Total)
system.cpu1.fetch.rateDist::total           192456262                       # Number of instructions fetched each cycle (Total)
system.cpu1.fp_regfile_reads                       12                       # number of floating regfile reads
system.cpu1.idleCycles                         192731                       # Total number of cycles that the CPU has spent unscheduled due to idling
system.cpu1.iew.branchMispredicts              518254                       # Number of branch mispredicts detected at execute
system.cpu1.iew.exec_branches                 7702258                       # Number of branches executed
system.cpu1.iew.exec_nop                            0                       # number of nop insts executed
system.cpu1.iew.exec_rate                    0.188916                       # Inst execution rate
system.cpu1.iew.exec_refs                    13004539                       # number of memory reference insts executed
system.cpu1.iew.exec_stores                   2945758                       # Number of stores executed
system.cpu1.iew.exec_swp                            0                       # number of swp insts executed
system.cpu1.iew.iewBlockCycles              148448760                       # Number of cycles IEW is blocking
system.cpu1.iew.iewDispLoadInsts             10317242                       # Number of dispatched load instructions
system.cpu1.iew.iewDispNonSpecInsts           1018566                       # Number of dispatched non-speculative instructions
system.cpu1.iew.iewDispSquashedInsts           246635                       # Number of squashed instructions skipped by dispatch
system.cpu1.iew.iewDispStoreInsts             2980357                       # Number of dispatched store instructions
system.cpu1.iew.iewDispatchedInsts           38172645                       # Number of instructions dispatched to IQ
system.cpu1.iew.iewExecLoadInsts             10058781                       # Number of load instructions executed
system.cpu1.iew.iewExecSquashedInsts           650153                       # Number of squashed instructions skipped in execute
system.cpu1.iew.iewExecutedInsts             36394491                       # Number of executed instructions
system.cpu1.iew.iewIQFullEvents                996809                       # Number of times the IQ has become full, causing a stall
system.cpu1.iew.iewIdleCycles                       0                       # Number of cycles IEW is idle
system.cpu1.iew.iewLSQFullEvents              1790501                       # Number of times the LSQ has become full, causing a stall
system.cpu1.iew.iewSquashCycles                485662                       # Number of cycles IEW is squashing
system.cpu1.iew.iewUnblockCycles              3892244                       # Number of cycles IEW is unblocking
system.cpu1.iew.lsq.thread0.blockedLoads            0                       # Number of blocked loads due to partial load-store forwarding
system.cpu1.iew.lsq.thread0.cacheBlocked        18097                       # Number of times an access to memory failed due to the cache being blocked
system.cpu1.iew.lsq.thread0.forwLoads          164702                       # Number of loads that had data forwarded from stores
system.cpu1.iew.lsq.thread0.ignoredResponses         4761                       # Number of memory responses ignored because the instruction is squashed
system.cpu1.iew.lsq.thread0.invAddrLoads            0                       # Number of loads ignored due to an invalid address
system.cpu1.iew.lsq.thread0.invAddrSwpfs            0                       # Number of software prefetches ignored due to an invalid address
system.cpu1.iew.lsq.thread0.memOrderViolation          139                       # Number of memory ordering violations
system.cpu1.iew.lsq.thread0.rescheduledLoads          467                       # Number of loads that were rescheduled
system.cpu1.iew.lsq.thread0.squashedLoads      1068717                       # Number of loads squashed
system.cpu1.iew.lsq.thread0.squashedStores        66594                       # Number of stores squashed
system.cpu1.iew.memOrderViolationEvents           139                       # Number of memory order violations
system.cpu1.iew.predictedNotTakenIncorrect        92636                       # Number of branches that were predicted not taken incorrectly
system.cpu1.iew.predictedTakenIncorrect        425618                       # Number of branches that were predicted taken incorrectly
system.cpu1.iew.wb_consumers                 21275448                       # num instructions consuming a value
system.cpu1.iew.wb_count                     36124555                       # cumulative count of insts written-back
system.cpu1.iew.wb_fanout                    0.864556                       # average fanout of values written-back
system.cpu1.iew.wb_producers                 18393812                       # num instructions producing a value
system.cpu1.iew.wb_rate                      0.187515                       # insts written-back per cycle
system.cpu1.iew.wb_sent                      36134235                       # cumulative count of insts sent to commit
system.cpu1.int_regfile_reads                44742858                       # number of integer regfile reads
system.cpu1.int_regfile_writes               24664701                       # number of integer regfile writes
system.cpu1.ipc                              0.167470                       # IPC: Instructions Per Cycle
system.cpu1.ipc_total                        0.167470                       # IPC: Total IPC of All Threads
system.cpu1.iq.FU_type_0::No_OpClass          2036082      5.50%      5.50% # Type of FU issued
system.cpu1.iq.FU_type_0::IntAlu             21914237     59.16%     64.65% # Type of FU issued
system.cpu1.iq.FU_type_0::IntMult                  44      0.00%     64.65% # Type of FU issued
system.cpu1.iq.FU_type_0::IntDiv                   84      0.00%     64.65% # Type of FU issued
system.cpu1.iq.FU_type_0::FloatAdd                  0      0.00%     64.65% # Type of FU issued
system.cpu1.iq.FU_type_0::FloatCmp                  0      0.00%     64.65% # Type of FU issued
system.cpu1.iq.FU_type_0::FloatCvt                  0      0.00%     64.65% # Type of FU issued
system.cpu1.iq.FU_type_0::FloatMult                 0      0.00%     64.65% # Type of FU issued
system.cpu1.iq.FU_type_0::FloatMultAcc              0      0.00%     64.65% # Type of FU issued
system.cpu1.iq.FU_type_0::FloatDiv                  0      0.00%     64.65% # Type of FU issued
system.cpu1.iq.FU_type_0::FloatMisc                 0      0.00%     64.65% # Type of FU issued
system.cpu1.iq.FU_type_0::FloatSqrt                 0      0.00%     64.65% # Type of FU issued
system.cpu1.iq.FU_type_0::SimdAdd                   0      0.00%     64.65% # Type of FU issued
system.cpu1.iq.FU_type_0::SimdAddAcc                0      0.00%     64.65% # Type of FU issued
system.cpu1.iq.FU_type_0::SimdAlu                   0      0.00%     64.65% # Type of FU issued
system.cpu1.iq.FU_type_0::SimdCmp                   0      0.00%     64.65% # Type of FU issued
system.cpu1.iq.FU_type_0::SimdCvt                   0      0.00%     64.65% # Type of FU issued
system.cpu1.iq.FU_type_0::SimdMisc                  0      0.00%     64.65% # Type of FU issued
system.cpu1.iq.FU_type_0::SimdMult                  0      0.00%     64.65% # Type of FU issued
system.cpu1.iq.FU_type_0::SimdMultAcc               0      0.00%     64.65% # Type of FU issued
system.cpu1.iq.FU_type_0::SimdShift                 0      0.00%     64.65% # Type of FU issued
system.cpu1.iq.FU_type_0::SimdShiftAcc              0      0.00%     64.65% # Type of FU issued
system.cpu1.iq.FU_type_0::SimdDiv                   0      0.00%     64.65% # Type of FU issued
system.cpu1.iq.FU_type_0::SimdSqrt                  0      0.00%     64.65% # Type of FU issued
system.cpu1.iq.FU_type_0::SimdFloatAdd              0      0.00%     64.65% # Type of FU issued
system.cpu1.iq.FU_type_0::SimdFloatAlu              0      0.00%     64.65% # Type of FU issued
system.cpu1.iq.FU_type_0::SimdFloatCmp              0      0.00%     64.65% # Type of FU issued
system.cpu1.iq.FU_type_0::SimdFloatCvt              0      0.00%     64.65% # Type of FU issued
system.cpu1.iq.FU_type_0::SimdFloatDiv              0      0.00%     64.65% # Type of FU issued
system.cpu1.iq.FU_type_0::SimdFloatMisc             0      0.00%     64.65% # Type of FU issued
system.cpu1.iq.FU_type_0::SimdFloatMult             0      0.00%     64.65% # Type of FU issued
system.cpu1.iq.FU_type_0::SimdFloatMultAcc            0      0.00%     64.65% # Type of FU issued
system.cpu1.iq.FU_type_0::SimdFloatSqrt             0      0.00%     64.65% # Type of FU issued
system.cpu1.iq.FU_type_0::SimdReduceAdd             0      0.00%     64.65% # Type of FU issued
system.cpu1.iq.FU_type_0::SimdReduceAlu             0      0.00%     64.65% # Type of FU issued
system.cpu1.iq.FU_type_0::SimdReduceCmp             0      0.00%     64.65% # Type of FU issued
system.cpu1.iq.FU_type_0::SimdFloatReduceAdd            0      0.00%     64.65% # Type of FU issued
system.cpu1.iq.FU_type_0::SimdFloatReduceCmp            0      0.00%     64.65% # Type of FU issued
system.cpu1.iq.FU_type_0::SimdAes                   0      0.00%     64.65% # Type of FU issued
system.cpu1.iq.FU_type_0::SimdAesMix                0      0.00%     64.65% # Type of FU issued
system.cpu1.iq.FU_type_0::SimdSha1Hash              0      0.00%     64.65% # Type of FU issued
system.cpu1.iq.FU_type_0::SimdSha1Hash2             0      0.00%     64.65% # Type of FU issued
system.cpu1.iq.FU_type_0::SimdSha256Hash            0      0.00%     64.65% # Type of FU issued
system.cpu1.iq.FU_type_0::SimdSha256Hash2            0      0.00%     64.65% # Type of FU issued
system.cpu1.iq.FU_type_0::SimdShaSigma2             0      0.00%     64.65% # Type of FU issued
system.cpu1.iq.FU_type_0::SimdShaSigma3             0      0.00%     64.65% # Type of FU issued
system.cpu1.iq.FU_type_0::SimdPredAlu               0      0.00%     64.65% # Type of FU issued
system.cpu1.iq.FU_type_0::MemRead            11158758     30.12%     94.78% # Type of FU issued
system.cpu1.iq.FU_type_0::MemWrite            1935427      5.22%    100.00% # Type of FU issued
system.cpu1.iq.FU_type_0::FloatMemRead              0      0.00%    100.00% # Type of FU issued
system.cpu1.iq.FU_type_0::FloatMemWrite            12      0.00%    100.00% # Type of FU issued
system.cpu1.iq.FU_type_0::IprAccess                 0      0.00%    100.00% # Type of FU issued
system.cpu1.iq.FU_type_0::InstPrefetch              0      0.00%    100.00% # Type of FU issued
system.cpu1.iq.FU_type_0::total              37044644                       # Type of FU issued
system.cpu1.iq.fp_alu_accesses                     14                       # Number of floating point alu accesses
system.cpu1.iq.fp_inst_queue_reads                 26                       # Number of floating instruction queue reads
system.cpu1.iq.fp_inst_queue_wakeup_accesses           12                       # Number of floating instruction queue wakeup accesses
system.cpu1.iq.fp_inst_queue_writes                12                       # Number of floating instruction queue writes
system.cpu1.iq.fu_busy_cnt                    1113511                       # FU busy when requested
system.cpu1.iq.fu_busy_rate                  0.030059                       # FU busy rate (busy events/executed inst)
system.cpu1.iq.fu_full::No_OpClass                  0      0.00%      0.00% # attempts to use FU when none available
system.cpu1.iq.fu_full::IntAlu                 215672     19.37%     19.37% # attempts to use FU when none available
system.cpu1.iq.fu_full::IntMult                     0      0.00%     19.37% # attempts to use FU when none available
system.cpu1.iq.fu_full::IntDiv                      0      0.00%     19.37% # attempts to use FU when none available
system.cpu1.iq.fu_full::FloatAdd                    0      0.00%     19.37% # attempts to use FU when none available
system.cpu1.iq.fu_full::FloatCmp                    0      0.00%     19.37% # attempts to use FU when none available
system.cpu1.iq.fu_full::FloatCvt                    0      0.00%     19.37% # attempts to use FU when none available
system.cpu1.iq.fu_full::FloatMult                   0      0.00%     19.37% # attempts to use FU when none available
system.cpu1.iq.fu_full::FloatMultAcc                0      0.00%     19.37% # attempts to use FU when none available
system.cpu1.iq.fu_full::FloatDiv                    0      0.00%     19.37% # attempts to use FU when none available
system.cpu1.iq.fu_full::FloatMisc                   0      0.00%     19.37% # attempts to use FU when none available
system.cpu1.iq.fu_full::FloatSqrt                   0      0.00%     19.37% # attempts to use FU when none available
system.cpu1.iq.fu_full::SimdAdd                     0      0.00%     19.37% # attempts to use FU when none available
system.cpu1.iq.fu_full::SimdAddAcc                  0      0.00%     19.37% # attempts to use FU when none available
system.cpu1.iq.fu_full::SimdAlu                     0      0.00%     19.37% # attempts to use FU when none available
system.cpu1.iq.fu_full::SimdCmp                     0      0.00%     19.37% # attempts to use FU when none available
system.cpu1.iq.fu_full::SimdCvt                     0      0.00%     19.37% # attempts to use FU when none available
system.cpu1.iq.fu_full::SimdMisc                    0      0.00%     19.37% # attempts to use FU when none available
system.cpu1.iq.fu_full::SimdMult                    0      0.00%     19.37% # attempts to use FU when none available
system.cpu1.iq.fu_full::SimdMultAcc                 0      0.00%     19.37% # attempts to use FU when none available
system.cpu1.iq.fu_full::SimdShift                   0      0.00%     19.37% # attempts to use FU when none available
system.cpu1.iq.fu_full::SimdShiftAcc                0      0.00%     19.37% # attempts to use FU when none available
system.cpu1.iq.fu_full::SimdDiv                     0      0.00%     19.37% # attempts to use FU when none available
system.cpu1.iq.fu_full::SimdSqrt                    0      0.00%     19.37% # attempts to use FU when none available
system.cpu1.iq.fu_full::SimdFloatAdd                0      0.00%     19.37% # attempts to use FU when none available
system.cpu1.iq.fu_full::SimdFloatAlu                0      0.00%     19.37% # attempts to use FU when none available
system.cpu1.iq.fu_full::SimdFloatCmp                0      0.00%     19.37% # attempts to use FU when none available
system.cpu1.iq.fu_full::SimdFloatCvt                0      0.00%     19.37% # attempts to use FU when none available
system.cpu1.iq.fu_full::SimdFloatDiv                0      0.00%     19.37% # attempts to use FU when none available
system.cpu1.iq.fu_full::SimdFloatMisc               0      0.00%     19.37% # attempts to use FU when none available
system.cpu1.iq.fu_full::SimdFloatMult               0      0.00%     19.37% # attempts to use FU when none available
system.cpu1.iq.fu_full::SimdFloatMultAcc            0      0.00%     19.37% # attempts to use FU when none available
system.cpu1.iq.fu_full::SimdFloatSqrt               0      0.00%     19.37% # attempts to use FU when none available
system.cpu1.iq.fu_full::SimdReduceAdd               0      0.00%     19.37% # attempts to use FU when none available
system.cpu1.iq.fu_full::SimdReduceAlu               0      0.00%     19.37% # attempts to use FU when none available
system.cpu1.iq.fu_full::SimdReduceCmp               0      0.00%     19.37% # attempts to use FU when none available
system.cpu1.iq.fu_full::SimdFloatReduceAdd            0      0.00%     19.37% # attempts to use FU when none available
system.cpu1.iq.fu_full::SimdFloatReduceCmp            0      0.00%     19.37% # attempts to use FU when none available
system.cpu1.iq.fu_full::SimdAes                     0      0.00%     19.37% # attempts to use FU when none available
system.cpu1.iq.fu_full::SimdAesMix                  0      0.00%     19.37% # attempts to use FU when none available
system.cpu1.iq.fu_full::SimdSha1Hash                0      0.00%     19.37% # attempts to use FU when none available
system.cpu1.iq.fu_full::SimdSha1Hash2               0      0.00%     19.37% # attempts to use FU when none available
system.cpu1.iq.fu_full::SimdSha256Hash              0      0.00%     19.37% # attempts to use FU when none available
system.cpu1.iq.fu_full::SimdSha256Hash2             0      0.00%     19.37% # attempts to use FU when none available
system.cpu1.iq.fu_full::SimdShaSigma2               0      0.00%     19.37% # attempts to use FU when none available
system.cpu1.iq.fu_full::SimdShaSigma3               0      0.00%     19.37% # attempts to use FU when none available
system.cpu1.iq.fu_full::SimdPredAlu                 0      0.00%     19.37% # attempts to use FU when none available
system.cpu1.iq.fu_full::MemRead                803654     72.17%     91.54% # attempts to use FU when none available
system.cpu1.iq.fu_full::MemWrite                94183      8.46%    100.00% # attempts to use FU when none available
[...]
system.cpu1.dcache.ReadReq_avg_miss_latency::.cpu1.data 69298.985241                       # average ReadReq miss latency
system.cpu1.dcache.ReadReq_avg_miss_latency::total 69298.985241                       # average ReadReq miss latency
system.cpu1.dcache.ReadReq_mshr_hits::.cpu1.data      2206329                       # number of ReadReq MSHR hits
system.cpu1.dcache.ReadReq_mshr_hits::total      2206329                       # number of ReadReq MSHR hits
system.cpu1.dcache.ReadReq_mshr_misses::.cpu1.data      1038480                       # number of ReadReq MSHR misses
system.cpu1.dcache.ReadReq_mshr_misses::total      1038480                       # number of ReadReq MSHR misses
system.cpu1.dcache.ReadReq_mshr_miss_latency::.cpu1.data  84885946000                       # number of ReadReq MSHR miss cycles
system.cpu1.dcache.ReadReq_mshr_miss_latency::total  84885946000                       # number of ReadReq MSHR miss cycles
system.cpu1.dcache.ReadReq_mshr_miss_rate::.cpu1.data     0.051285                       # mshr miss rate for ReadReq accesses
system.cpu1.dcache.ReadReq_mshr_miss_rate::total     0.051285                       # mshr miss rate for ReadReq accesses
system.cpu1.dcache.ReadReq_avg_mshr_miss_latency::.cpu1.data 81740.568908                       # average ReadReq mshr miss latency
system.cpu1.dcache.ReadReq_avg_mshr_miss_latency::total 81740.568908                       # average ReadReq mshr miss latency
system.cpu1.dcache.WriteReq_hits::.cpu1.data       409527                       # number of WriteReq hits
system.cpu1.dcache.WriteReq_hits::total        409527                       # number of WriteReq hits
system.cpu1.dcache.WriteReq_misses::.cpu1.data       416482                       # number of WriteReq misses
system.cpu1.dcache.WriteReq_misses::total       416482                       # number of WriteReq misses
system.cpu1.dcache.WriteReq_miss_latency::.cpu1.data  29599331996                       # number of WriteReq miss cycles
system.cpu1.dcache.WriteReq_miss_latency::total  29599331996                       # number of WriteReq miss cycles
system.cpu1.dcache.WriteReq_accesses::.cpu1.data       826009                       # number of WriteReq accesses(hits+misses)
system.cpu1.dcache.WriteReq_accesses::total       826009                       # number of WriteReq accesses(hits+misses)
system.cpu1.dcache.WriteReq_miss_rate::.cpu1.data     0.504210                       # miss rate for WriteReq accesses
system.cpu1.dcache.WriteReq_miss_rate::total     0.504210                       # miss rate for WriteReq accesses
system.cpu1.dcache.WriteReq_avg_miss_latency::.cpu1.data 71069.894968                       # average WriteReq miss latency
system.cpu1.dcache.WriteReq_avg_miss_latency::total 71069.894968                       # average WriteReq miss latency
system.cpu1.dcache.WriteReq_mshr_hits::.cpu1.data       377452                       # number of WriteReq MSHR hits
system.cpu1.dcache.WriteReq_mshr_hits::total       377452                       # number of WriteReq MSHR hits
system.cpu1.dcache.WriteReq_mshr_misses::.cpu1.data        39030                       # number of WriteReq MSHR misses
system.cpu1.dcache.WriteReq_mshr_misses::total        39030                       # number of WriteReq MSHR misses
system.cpu1.dcache.WriteReq_mshr_miss_latency::.cpu1.data   2720489497                       # number of WriteReq MSHR miss cycles
system.cpu1.dcache.WriteReq_mshr_miss_latency::total   2720489497                       # number of WriteReq MSHR miss cycles
system.cpu1.dcache.WriteReq_mshr_miss_rate::.cpu1.data     0.047251                       # mshr miss rate for WriteReq accesses
system.cpu1.dcache.WriteReq_mshr_miss_rate::total     0.047251                       # mshr miss rate for WriteReq accesses
system.cpu1.dcache.WriteReq_avg_mshr_miss_latency::.cpu1.data 69702.523623                       # average WriteReq mshr miss latency
system.cpu1.dcache.WriteReq_avg_mshr_miss_latency::total 69702.523623                       # average WriteReq mshr miss latency
system.cpu1.dcache.LoadLockedReq_hits::.cpu1.data       552911                       # number of LoadLockedReq hits
system.cpu1.dcache.LoadLockedReq_hits::total       552911                       # number of LoadLockedReq hits
system.cpu1.dcache.LoadLockedReq_misses::.cpu1.data         6270                       # number of LoadLockedReq misses
system.cpu1.dcache.LoadLockedReq_misses::total         6270                       # number of LoadLockedReq misses
system.cpu1.dcache.LoadLockedReq_miss_latency::.cpu1.data    166006000                       # number of LoadLockedReq miss cycles
system.cpu1.dcache.LoadLockedReq_miss_latency::total    166006000                       # number of LoadLockedReq miss cycles
system.cpu1.dcache.LoadLockedReq_accesses::.cpu1.data       559181                       # number of LoadLockedReq accesses(hits+misses)
system.cpu1.dcache.LoadLockedReq_accesses::total       559181                       # number of LoadLockedReq accesses(hits+misses)
system.cpu1.dcache.LoadLockedReq_miss_rate::.cpu1.data     0.011213                       # miss rate for LoadLockedReq accesses
system.cpu1.dcache.LoadLockedReq_miss_rate::total     0.011213                       # miss rate for LoadLockedReq accesses
system.cpu1.dcache.LoadLockedReq_avg_miss_latency::.cpu1.data 26476.236045                       # average LoadLockedReq miss latency
system.cpu1.dcache.LoadLockedReq_avg_miss_latency::total 26476.236045                       # average LoadLockedReq miss latency
system.cpu1.dcache.LoadLockedReq_mshr_hits::.cpu1.data          131                       # number of LoadLockedReq MSHR hits
system.cpu1.dcache.LoadLockedReq_mshr_hits::total          131                       # number of LoadLockedReq MSHR hits
system.cpu1.dcache.LoadLockedReq_mshr_misses::.cpu1.data         6139                       # number of LoadLockedReq MSHR misses
system.cpu1.dcache.LoadLockedReq_mshr_misses::total         6139                       # number of LoadLockedReq MSHR misses
system.cpu1.dcache.LoadLockedReq_mshr_miss_latency::.cpu1.data    150371000                       # number of LoadLockedReq MSHR miss cycles
system.cpu1.dcache.LoadLockedReq_mshr_miss_latency::total    150371000                       # number of LoadLockedReq MSHR miss cycles
system.cpu1.dcache.LoadLockedReq_mshr_miss_rate::.cpu1.data     0.010979                       # mshr miss rate for LoadLockedReq accesses
system.cpu1.dcache.LoadLockedReq_mshr_miss_rate::total     0.010979                       # mshr miss rate for LoadLockedReq accesses
system.cpu1.dcache.LoadLockedReq_avg_mshr_miss_latency::.cpu1.data 24494.380192                       # average LoadLockedReq mshr miss latency
system.cpu1.dcache.LoadLockedReq_avg_mshr_miss_latency::total 24494.380192                       # average LoadLockedReq mshr miss latency
system.cpu1.dcache.StoreCondReq_hits::.cpu1.data       558669                       # number of StoreCondReq hits
system.cpu1.dcache.StoreCondReq_hits::total       558669                       # number of StoreCondReq hits
system.cpu1.dcache.StoreCondReq_misses::.cpu1.data          354                       # number of StoreCondReq misses
system.cpu1.dcache.StoreCondReq_misses::total          354                       # number of StoreCondReq misses
system.cpu1.dcache.StoreCondReq_miss_latency::.cpu1.data      2778000                       # number of StoreCondReq miss cycles
system.cpu1.dcache.StoreCondReq_miss_latency::total      2778000                       # number of StoreCondReq miss cycles
system.cpu1.dcache.StoreCondReq_accesses::.cpu1.data       559023                       # number of StoreCondReq accesses(hits+misses)
system.cpu1.dcache.StoreCondReq_accesses::total       559023                       # number of StoreCondReq accesses(hits+misses)
system.cpu1.dcache.StoreCondReq_miss_rate::.cpu1.data     0.000633                       # miss rate for StoreCondReq accesses
system.cpu1.dcache.StoreCondReq_miss_rate::total     0.000633                       # miss rate for StoreCondReq accesses
system.cpu1.dcache.StoreCondReq_avg_miss_latency::.cpu1.data  7847.457627                       # average StoreCondReq miss latency
system.cpu1.dcache.StoreCondReq_avg_miss_latency::total  7847.457627                       # average StoreCondReq miss latency
system.cpu1.dcache.StoreCondReq_mshr_misses::.cpu1.data          353                       # number of StoreCondReq MSHR misses
system.cpu1.dcache.StoreCondReq_mshr_misses::total          353                       # number of StoreCondReq MSHR misses
system.cpu1.dcache.StoreCondReq_mshr_miss_latency::.cpu1.data      2425000                       # number of StoreCondReq MSHR miss cycles
system.cpu1.dcache.StoreCondReq_mshr_miss_latency::total      2425000                       # number of StoreCondReq MSHR miss cycles
system.cpu1.dcache.StoreCondReq_mshr_miss_rate::.cpu1.data     0.000631                       # mshr miss rate for StoreCondReq accesses
system.cpu1.dcache.StoreCondReq_mshr_miss_rate::total     0.000631                       # mshr miss rate for StoreCondReq accesses
system.cpu1.dcache.StoreCondReq_avg_mshr_miss_latency::.cpu1.data  6869.688385                       # average StoreCondReq mshr miss latency
system.cpu1.dcache.StoreCondReq_avg_mshr_miss_latency::total  6869.688385                       # average StoreCondReq mshr miss latency
system.cpu1.dcache.SwapReq_hits::.cpu1.data          525                       # number of SwapReq hits
system.cpu1.dcache.SwapReq_hits::total            525                       # number of SwapReq hits
system.cpu1.dcache.SwapReq_misses::.cpu1.data          549                       # number of SwapReq misses
system.cpu1.dcache.SwapReq_misses::total          549                       # number of SwapReq misses
system.cpu1.dcache.SwapReq_miss_latency::.cpu1.data     22768500                       # number of SwapReq miss cycles
system.cpu1.dcache.SwapReq_miss_latency::total     22768500                       # number of SwapReq miss cycles
system.cpu1.dcache.SwapReq_accesses::.cpu1.data         1074                       # number of SwapReq accesses(hits+misses)
system.cpu1.dcache.SwapReq_accesses::total         1074                       # number of SwapReq accesses(hits+misses)
system.cpu1.dcache.SwapReq_miss_rate::.cpu1.data     0.511173                       # miss rate for SwapReq accesses
system.cpu1.dcache.SwapReq_miss_rate::total     0.511173                       # miss rate for SwapReq accesses
system.cpu1.dcache.SwapReq_avg_miss_latency::.cpu1.data 41472.677596                       # average SwapReq miss latency
system.cpu1.dcache.SwapReq_avg_miss_latency::total 41472.677596                       # average SwapReq miss latency
system.cpu1.dcache.SwapReq_mshr_misses::.cpu1.data          549                       # number of SwapReq MSHR misses
system.cpu1.dcache.SwapReq_mshr_misses::total          549                       # number of SwapReq MSHR misses
system.cpu1.dcache.SwapReq_mshr_miss_latency::.cpu1.data     22219500                       # number of SwapReq MSHR miss cycles
system.cpu1.dcache.SwapReq_mshr_miss_latency::total     22219500                       # number of SwapReq MSHR miss cycles
system.cpu1.dcache.SwapReq_mshr_miss_rate::.cpu1.data     0.511173                       # mshr miss rate for SwapReq accesses
system.cpu1.dcache.SwapReq_mshr_miss_rate::total     0.511173                       # mshr miss rate for SwapReq accesses
system.cpu1.dcache.SwapReq_avg_mshr_miss_latency::.cpu1.data 40472.677596                       # average SwapReq mshr miss latency
system.cpu1.dcache.SwapReq_avg_mshr_miss_latency::total 40472.677596                       # average SwapReq mshr miss latency
system.cpu1.dcache.tags.pwrStateResidencyTicks::UNDEFINED 118481424500                       # Cumulative time (in ticks) in various power states
system.cpu1.dcache.tags.tagsinuse           31.649924                       # Cycle average of tags in use
system.cpu1.dcache.tags.total_refs           19612974                       # Total number of references to valid blocks.
system.cpu1.dcache.tags.sampled_refs          1083822                       # Sample count of references to valid blocks.
system.cpu1.dcache.tags.avg_refs            18.096121                       # Average number of references to valid blocks.
system.cpu1.dcache.tags.warmup_cycle                0                       # Cycle when the warmup percentage was hit.
system.cpu1.dcache.tags.occ_blocks::.cpu1.data    31.649924                       # Average occupied blocks per requestor
system.cpu1.dcache.tags.occ_percent::.cpu1.data     0.989060                       # Average percentage of cache occupancy
system.cpu1.dcache.tags.occ_percent::total     0.989060                       # Average percentage of cache occupancy
system.cpu1.dcache.tags.occ_task_id_blocks::1024           27                       # Occupied blocks per task id
system.cpu1.dcache.tags.age_task_id_blocks_1024::1            3                       # Occupied blocks per task id
system.cpu1.dcache.tags.age_task_id_blocks_1024::2           24                       # Occupied blocks per task id
system.cpu1.dcache.tags.occ_task_id_percent::1024     0.843750                       # Percentage of cache occupancy per task id
system.cpu1.dcache.tags.tag_accesses         45473065                       # Number of tag accesses
system.cpu1.dcache.tags.data_accesses        45473065                       # Number of data accesses
system.cpu_clk_domain.clock                       500                       # Clock period in ticks
system.tol2bus.pwrStateResidencyTicks::UNDEFINED 118481424500                       # Cumulative time (in ticks) in various power states
system.tol2bus.trans_dist::ReadResp           3049505                       # Transaction distribution
system.tol2bus.trans_dist::WritebackDirty       774899                       # Transaction distribution
system.tol2bus.trans_dist::WritebackClean      2728739                       # Transaction distribution
system.tol2bus.trans_dist::CleanEvict         6101468                       # Transaction distribution
system.tol2bus.trans_dist::HardPFReq          3377586                       # Transaction distribution
system.tol2bus.trans_dist::UpgradeReq            1068                       # Transaction distribution
system.tol2bus.trans_dist::SCUpgradeReq           870                       # Transaction distribution
system.tol2bus.trans_dist::UpgradeResp           1938                       # Transaction distribution
system.tol2bus.trans_dist::ReadExReq           101645                       # Transaction distribution
system.tol2bus.trans_dist::ReadExResp          101645                       # Transaction distribution
system.tol2bus.trans_dist::ReadCleanReq        285460                       # Transaction distribution
system.tol2bus.trans_dist::ReadSharedReq      2764045                       # Transaction distribution
system.tol2bus.trans_dist::InvalidateReq          177                       # Transaction distribution
system.tol2bus.trans_dist::InvalidateResp          177                       # Transaction distribution
system.tol2bus.pkt_count_system.cpu0.icache.mem_side::system.l2.cpu_side       841566                       # Packet count per connected master and slave (bytes)
system.tol2bus.pkt_count_system.cpu0.dcache.mem_side::system.l2.cpu_side      5345291                       # Packet count per connected master and slave (bytes)
system.tol2bus.pkt_count_system.cpu1.icache.mem_side::system.l2.cpu_side        14814                       # Packet count per connected master and slave (bytes)
system.tol2bus.pkt_count_system.cpu1.dcache.mem_side::system.l2.cpu_side      3249475                       # Packet count per connected master and slave (bytes)
system.tol2bus.pkt_count::total               9451146                       # Packet count per connected master and slave (bytes)
system.tol2bus.pkt_size_system.cpu0.icache.mem_side::system.l2.cpu_side     35906816                       # Cumulative packet size per connected master and slave (bytes)
system.tol2bus.pkt_size_system.cpu0.dcache.mem_side::system.l2.cpu_side    227940032                       # Cumulative packet size per connected master and slave (bytes)
system.tol2bus.pkt_size_system.cpu1.icache.mem_side::system.l2.cpu_side       632064                       # Cumulative packet size per connected master and slave (bytes)
system.tol2bus.pkt_size_system.cpu1.dcache.mem_side::system.l2.cpu_side    138544640                       # Cumulative packet size per connected master and slave (bytes)
system.tol2bus.pkt_size::total              403023552                       # Cumulative packet size per connected master and slave (bytes)
system.tol2bus.snoops                         9838076                       # Total snoops (count)
system.tol2bus.snoopTraffic                  22882880                       # Total snoop traffic (bytes)
system.tol2bus.snoop_fanout::samples         12987138                       # Request fanout histogram
system.tol2bus.snoop_fanout::mean            0.190059                       # Request fanout histogram
system.tol2bus.snoop_fanout::stdev           0.400779                       # Request fanout histogram
system.tol2bus.snoop_fanout::underflows             0      0.00%      0.00% # Request fanout histogram
system.tol2bus.snoop_fanout::0               10562242     81.33%     81.33% # Request fanout histogram
system.tol2bus.snoop_fanout::1                2381473     18.34%     99.67% # Request fanout histogram
system.tol2bus.snoop_fanout::2                  43423      0.33%    100.00% # Request fanout histogram
system.tol2bus.snoop_fanout::3                      0      0.00%    100.00% # Request fanout histogram
system.tol2bus.snoop_fanout::4                      0      0.00%    100.00% # Request fanout histogram
system.tol2bus.snoop_fanout::5                      0      0.00%    100.00% # Request fanout histogram
system.tol2bus.snoop_fanout::6                      0      0.00%    100.00% # Request fanout histogram
system.tol2bus.snoop_fanout::7                      0      0.00%    100.00% # Request fanout histogram
system.tol2bus.snoop_fanout::8                      0      0.00%    100.00% # Request fanout histogram
system.tol2bus.snoop_fanout::overflows              0      0.00%    100.00% # Request fanout histogram
system.tol2bus.snoop_fanout::min_value              0                       # Request fanout histogram
system.tol2bus.snoop_fanout::max_value              2                       # Request fanout histogram
system.tol2bus.snoop_fanout::total           12987138                       # Request fanout histogram
system.tol2bus.reqLayer0.occupancy         6299942465                       # Layer occupancy (ticks)
system.tol2bus.reqLayer0.utilization              5.3                       # Layer utilization (%)
system.tol2bus.respLayer1.occupancy        2674552430                       # Layer occupancy (ticks)
system.tol2bus.respLayer1.utilization             2.3                       # Layer utilization (%)
system.tol2bus.respLayer0.occupancy         420878309                       # Layer occupancy (ticks)
system.tol2bus.respLayer0.utilization             0.4                       # Layer utilization (%)
system.tol2bus.respLayer3.occupancy        1626851440                       # Layer occupancy (ticks)
system.tol2bus.respLayer3.utilization             1.4                       # Layer utilization (%)
system.tol2bus.respLayer2.occupancy           7438437                       # Layer occupancy (ticks)
system.tol2bus.respLayer2.utilization             0.0                       # Layer utilization (%)

---------- End Simulation Statistics   ----------
