
---------- Begin Simulation Statistics ----------
final_tick                               1973145138500                       # Number of ticks from beginning of simulation (restored from checkpoints and never reset)
host_inst_rate                                 101998                       # Simulator instruction rate (inst/s)
host_mem_usage                                 703444                       # Number of bytes of host memory used
host_op_rate                                   102328                       # Simulator op (including micro ops) rate (op/s)
host_seconds                                 23085.76                       # Real time elapsed on the host
host_tick_rate                               85470222                       # Simulator tick rate (ticks/s)
sim_freq                                 1000000000000                       # Frequency of simulated ticks
sim_insts                                  2354701247                       # Number of instructions simulated
sim_ops                                    2362310152                       # Number of ops (including micro ops) simulated
sim_seconds                                  1.973145                       # Number of seconds simulated
sim_ticks                                1973145138500                       # Number of ticks simulated
system.cpu0.branchPred.BTBCorrect                   0                       # Number of correct BTB predictions (this stat may not work properly.
system.cpu0.branchPred.BTBHitPct            87.783606                       # BTB Hit Percentage
system.cpu0.branchPred.BTBHits              305117412                       # Number of BTB hits
system.cpu0.branchPred.BTBLookups           347579035                       # Number of BTB lookups
system.cpu0.branchPred.RASInCorrect                 0                       # Number of incorrect RAS predictions.
system.cpu0.branchPred.condIncorrect         31333960                       # Number of conditional branches incorrect
system.cpu0.branchPred.condPredicted        462033207                       # Number of conditional branches predicted
system.cpu0.branchPred.indirectHits          39527188                       # Number of indirect target hits.
system.cpu0.branchPred.indirectLookups       40060202                       # Number of indirect predictor lookups.
system.cpu0.branchPred.indirectMisses          533014                       # Number of indirect misses.
system.cpu0.branchPred.lookups              595212560                       # Number of BP lookups
system.cpu0.branchPred.usedRAS                      0                       # Number of times the RAS was used to get a target.
system.cpu0.branchPredindirectMispredicted      3959999                       # Number of mispredicted indirect branches.
system.cpu0.commit.amos                       3801855                       # Number of atomic instructions committed
system.cpu0.commit.branchMispredicts         17675425                       # The number of times a branch was mispredicted
system.cpu0.commit.branches                 554990550                       # Number of branches committed
system.cpu0.commit.bw_lim_events             57616075                       # number cycles where commit BW limit reached
system.cpu0.commit.commitNonSpecStalls       11419483                       # The number of times commit has been forced to stall to communicate backwards
system.cpu0.commit.commitSquashedInsts      123901701                       # The number of squashed insts skipped by commit
system.cpu0.commit.committedInsts          2224645266                       # Number of instructions committed
system.cpu0.commit.committedOps            2228452419                       # Number of ops (including micro ops) committed
system.cpu0.commit.committed_per_cycle::samples   3621285728                       # Number of insts commited each cycle
system.cpu0.commit.committed_per_cycle::mean     0.615376                       # Number of insts commited each cycle
system.cpu0.commit.committed_per_cycle::stdev     1.356514                       # Number of insts commited each cycle
system.cpu0.commit.committed_per_cycle::underflows            0      0.00%      0.00% # Number of insts commited each cycle
system.cpu0.commit.committed_per_cycle::0   2532055081     69.92%     69.92% # Number of insts commited each cycle
system.cpu0.commit.committed_per_cycle::1    651293926     17.99%     87.91% # Number of insts commited each cycle
system.cpu0.commit.committed_per_cycle::2    150564982      4.16%     92.06% # Number of insts commited each cycle
system.cpu0.commit.committed_per_cycle::3    152377298      4.21%     96.27% # Number of insts commited each cycle
system.cpu0.commit.committed_per_cycle::4     47948963      1.32%     97.60% # Number of insts commited each cycle
system.cpu0.commit.committed_per_cycle::5     15606202      0.43%     98.03% # Number of insts commited each cycle
system.cpu0.commit.committed_per_cycle::6      8621234      0.24%     98.27% # Number of insts commited each cycle
system.cpu0.commit.committed_per_cycle::7      5201967      0.14%     98.41% # Number of insts commited each cycle
system.cpu0.commit.committed_per_cycle::8     57616075      1.59%    100.00% # Number of insts commited each cycle
system.cpu0.commit.committed_per_cycle::overflows            0      0.00%    100.00% # Number of insts commited each cycle
system.cpu0.commit.committed_per_cycle::min_value            0                       # Number of insts commited each cycle
system.cpu0.commit.committed_per_cycle::max_value            8                       # Number of insts commited each cycle
system.cpu0.commit.committed_per_cycle::total   3621285728                       # Number of insts commited each cycle
system.cpu0.commit.fp_insts                        50                       # Number of committed floating point instructions.
system.cpu0.commit.function_calls            44160374                       # Number of function calls committed.
system.cpu0.commit.int_insts               2150759647                       # Number of committed integer instructions.
system.cpu0.commit.loads                    691520620                       # Number of loads committed
system.cpu0.commit.membars                    7608891                       # Number of memory barriers committed
system.cpu0.commit.op_class_0::No_OpClass      7608897      0.34%      0.34% # Class of committed instruction
system.cpu0.commit.op_class_0::IntAlu      1238679103     55.58%     55.93% # Class of committed instruction
system.cpu0.commit.op_class_0::IntMult       18318071      0.82%     56.75% # Class of committed instruction
system.cpu0.commit.op_class_0::IntDiv         3801411      0.17%     56.92% # Class of committed instruction
system.cpu0.commit.op_class_0::FloatAdd             0      0.00%     56.92% # Class of committed instruction
system.cpu0.commit.op_class_0::FloatCmp             4      0.00%     56.92% # Class of committed instruction
system.cpu0.commit.op_class_0::FloatCvt            12      0.00%     56.92% # Class of committed instruction
system.cpu0.commit.op_class_0::FloatMult            0      0.00%     56.92% # Class of committed instruction
system.cpu0.commit.op_class_0::FloatMultAcc            0      0.00%     56.92% # Class of committed instruction
system.cpu0.commit.op_class_0::FloatDiv             2      0.00%     56.92% # Class of committed instruction
system.cpu0.commit.op_class_0::FloatMisc            4      0.00%     56.92% # Class of committed instruction
system.cpu0.commit.op_class_0::FloatSqrt            0      0.00%     56.92% # Class of committed instruction
system.cpu0.commit.op_class_0::SimdAdd              0      0.00%     56.92% # Class of committed instruction
system.cpu0.commit.op_class_0::SimdAddAcc            0      0.00%     56.92% # Class of committed instruction
system.cpu0.commit.op_class_0::SimdAlu              0      0.00%     56.92% # Class of committed instruction
system.cpu0.commit.op_class_0::SimdCmp              0      0.00%     56.92% # Class of committed instruction
system.cpu0.commit.op_class_0::SimdCvt              0      0.00%     56.92% # Class of committed instruction
system.cpu0.commit.op_class_0::SimdMisc             0      0.00%     56.92% # Class of committed instruction
system.cpu0.commit.op_class_0::SimdMult             0      0.00%     56.92% # Class of committed instruction
system.cpu0.commit.op_class_0::SimdMultAcc            0      0.00%     56.92% # Class of committed instruction
system.cpu0.commit.op_class_0::SimdShift            0      0.00%     56.92% # Class of committed instruction
system.cpu0.commit.op_class_0::SimdShiftAcc            0      0.00%     56.92% # Class of committed instruction
system.cpu0.commit.op_class_0::SimdDiv              0      0.00%     56.92% # Class of committed instruction
system.cpu0.commit.op_class_0::SimdSqrt             0      0.00%     56.92% # Class of committed instruction
system.cpu0.commit.op_class_0::SimdFloatAdd            0      0.00%     56.92% # Class of committed instruction
system.cpu0.commit.op_class_0::SimdFloatAlu            0      0.00%     56.92% # Class of committed instruction
system.cpu0.commit.op_class_0::SimdFloatCmp            0      0.00%     56.92% # Class of committed instruction
system.cpu0.commit.op_class_0::SimdFloatCvt            0      0.00%     56.92% # Class of committed instruction
system.cpu0.commit.op_class_0::SimdFloatDiv            0      0.00%     56.92% # Class of committed instruction
system.cpu0.commit.op_class_0::SimdFloatMisc            0      0.00%     56.92% # Class of committed instruction
system.cpu0.commit.op_class_0::SimdFloatMult            0      0.00%     56.92% # Class of committed instruction
system.cpu0.commit.op_class_0::SimdFloatMultAcc            0      0.00%     56.92% # Class of committed instruction
system.cpu0.commit.op_class_0::SimdFloatSqrt            0      0.00%     56.92% # Class of committed instruction
system.cpu0.commit.op_class_0::SimdReduceAdd            0      0.00%     56.92% # Class of committed instruction
system.cpu0.commit.op_class_0::SimdReduceAlu            0      0.00%     56.92% # Class of committed instruction
system.cpu0.commit.op_class_0::SimdReduceCmp            0      0.00%     56.92% # Class of committed instruction
system.cpu0.commit.op_class_0::SimdFloatReduceAdd            0      0.00%     56.92% # Class of committed instruction
system.cpu0.commit.op_class_0::SimdFloatReduceCmp            0      0.00%     56.92% # Class of committed instruction
system.cpu0.commit.op_class_0::SimdAes              0      0.00%     56.92% # Class of committed instruction
system.cpu0.commit.op_class_0::SimdAesMix            0      0.00%     56.92% # Class of committed instruction
system.cpu0.commit.op_class_0::SimdSha1Hash            0      0.00%     56.92% # Class of committed instruction
system.cpu0.commit.op_class_0::SimdSha1Hash2            0      0.00%     56.92% # Class of committed instruction
system.cpu0.commit.op_class_0::SimdSha256Hash            0      0.00%     56.92% # Class of committed instruction
system.cpu0.commit.op_class_0::SimdSha256Hash2            0      0.00%     56.92% # Class of committed instruction
system.cpu0.commit.op_class_0::SimdShaSigma2            0      0.00%     56.92% # Class of committed instruction
system.cpu0.commit.op_class_0::SimdShaSigma3            0      0.00%     56.92% # Class of committed instruction
system.cpu0.commit.op_class_0::SimdPredAlu            0      0.00%     56.92% # Class of committed instruction
system.cpu0.commit.op_class_0::MemRead      695322467     31.20%     88.12% # Class of committed instruction
system.cpu0.commit.op_class_0::MemWrite     264722420     11.88%    100.00% # Class of committed instruction
system.cpu0.commit.op_class_0::FloatMemRead            8      0.00%    100.00% # Class of committed instruction
system.cpu0.commit.op_class_0::FloatMemWrite           20      0.00%    100.00% # Class of committed instruction
system.cpu0.commit.op_class_0::IprAccess            0      0.00%    100.00% # Class of committed instruction
system.cpu0.commit.op_class_0::InstPrefetch            0      0.00%    100.00% # Class of committed instruction
system.cpu0.commit.op_class_0::total       2228452419                       # Class of committed instruction
system.cpu0.commit.refs                     960044915                       # Number of memory references committed
system.cpu0.commit.swp_count                        0                       # Number of s/w prefetches committed
system.cpu0.commit.vec_insts                        0                       # Number of committed Vector instructions.
system.cpu0.committedInsts                 2224645266                       # Number of Instructions Simulated
system.cpu0.committedOps                   2228452419                       # Number of Ops (including micro ops) Simulated
system.cpu0.cpi                              1.771286                       # CPI: Cycles Per Instruction
system.cpu0.cpi_total                        1.771286                       # CPI: Total CPI of All Threads
system.cpu0.decode.BlockedCycles            624321405                       # Number of cycles decode is blocked
system.cpu0.decode.BranchMispred             13672479                       # Number of times decode detected a branch misprediction
system.cpu0.decode.BranchResolved           298340366                       # Number of times decode resolved a branch
system.cpu0.decode.DecodedInsts            2390229314                       # Number of instructions handled by decode
system.cpu0.decode.IdleCycles              1356339277                       # Number of cycles decode is idle
system.cpu0.decode.RunCycles               1641285249                       # Number of cycles decode is running
system.cpu0.decode.SquashCycles              17690697                       # Number of cycles decode is squashing
system.cpu0.decode.SquashedInsts             19975046                       # Number of squashed instructions handled by decode
system.cpu0.decode.UnblockCycles             10220017                       # Number of cycles decode is unblocking
system.cpu0.dtb.accesses                            0                       # DTB accesses
system.cpu0.dtb.hits                                0                       # DTB hits
system.cpu0.dtb.misses                              0                       # DTB misses
system.cpu0.dtb.read_accesses                       0                       # DTB read accesses
system.cpu0.dtb.read_hits                           0                       # DTB read hits
system.cpu0.dtb.read_misses                         0                       # DTB read misses
system.cpu0.dtb.write_accesses                      0                       # DTB write accesses
system.cpu0.dtb.write_hits                          0                       # DTB write hits
system.cpu0.dtb.write_misses                        0                       # DTB write misses
system.cpu0.fetch.Branches                  595212560                       # Number of branches that fetch encountered
system.cpu0.fetch.CacheLines                404590029                       # Number of cache lines fetched
system.cpu0.fetch.Cycles                   2296486652                       # Number of cycles fetch has run and was not squashing or blocked
system.cpu0.fetch.IcacheSquashes             12738628                       # Number of outstanding Icache misses that were squashed
system.cpu0.fetch.IcacheWaitRetryStallCycles           93                       # Number of stall cycles due to full MSHR
system.cpu0.fetch.Insts                    2428767442                       # Number of instructions fetch has processed
system.cpu0.fetch.MiscStallCycles                  70                       # Number of cycles fetch has spent waiting on interrupts, or bad addresses, or out of MSHRs
system.cpu0.fetch.PendingTrapStallCycles          342                       # Number of stall cycles due to pending traps
system.cpu0.fetch.SquashCycles               62698574                       # Number of cycles fetch has spent squashing
system.cpu0.fetch.branchRate                 0.151051                       # Number of branch fetches per cycle
system.cpu0.fetch.icacheStallCycles        1322020201                       # Number of cycles fetch is stalled on an Icache miss
system.cpu0.fetch.predictedBranches         344644600                       # Number of branches that fetch has predicted taken
system.cpu0.fetch.rate                       0.616363                       # Number of inst fetches per cycle
system.cpu0.fetch.rateDist::samples        3649856645                       # Number of instructions fetched each cycle (Total)
system.cpu0.fetch.rateDist::mean             0.666485                       # Number of instructions fetched each cycle (Total)
system.cpu0.fetch.rateDist::stdev            0.914068                       # Number of instructions fetched each cycle (Total)
system.cpu0.fetch.rateDist::underflows              0      0.00%      0.00% # Number of instructions fetched each cycle (Total)
system.cpu0.fetch.rateDist::0              1942424169     53.22%     53.22% # Number of instructions fetched each cycle (Total)
system.cpu0.fetch.rateDist::1              1261427508     34.56%     87.78% # Number of instructions fetched each cycle (Total)
system.cpu0.fetch.rateDist::2               234200081      6.42%     94.20% # Number of instructions fetched each cycle (Total)
system.cpu0.fetch.rateDist::3               168017267      4.60%     98.80% # Number of instructions fetched each cycle (Total)
system.cpu0.fetch.rateDist::4                32780580      0.90%     99.70% # Number of instructions fetched each cycle (Total)
system.cpu0.fetch.rateDist::5                 6082257      0.17%     99.87% # Number of instructions fetched each cycle (Total)
system.cpu0.fetch.rateDist::6                 1117959      0.03%     99.90% # Number of instructions fetched each cycle (Total)
system.cpu0.fetch.rateDist::7                     435      0.00%     99.90% # Number of instructions fetched each cycle (Total)
system.cpu0.fetch.rateDist::8                 3806389      0.10%    100.00% # Number of instructions fetched each cycle (Total)
system.cpu0.fetch.rateDist::overflows               0      0.00%    100.00% # Number of instructions fetched each cycle (Total)
system.cpu0.fetch.rateDist::min_value               0                       # Number of instructions fetched each cycle (Total)
system.cpu0.fetch.rateDist::max_value               8                       # Number of instructions fetched each cycle (Total)
system.cpu0.fetch.rateDist::total          3649856645                       # Number of instructions fetched each cycle (Total)
system.cpu0.fp_regfile_reads                       45                       # number of floating regfile reads
system.cpu0.fp_regfile_writes                      24                       # number of floating regfile writes
system.cpu0.idleCycles                      290625868                       # Total number of cycles that the CPU has spent unscheduled due to idling
system.cpu0.iew.branchMispredicts            18251056                       # Number of branch mispredicts detected at execute
system.cpu0.iew.exec_branches               565876997                       # Number of branches executed
system.cpu0.iew.exec_nop                            0                       # number of nop insts executed
system.cpu0.iew.exec_rate                    0.592110                       # Inst execution rate
system.cpu0.iew.exec_refs                  1033549944                       # number of memory reference insts executed
system.cpu0.iew.exec_stores                 275348955                       # Number of stores executed
system.cpu0.iew.exec_swp                            0                       # number of swp insts executed
system.cpu0.iew.iewBlockCycles              530307776                       # Number of cycles IEW is blocking
system.cpu0.iew.iewDispLoadInsts            756175448                       # Number of dispatched load instructions
system.cpu0.iew.iewDispNonSpecInsts           3810801                       # Number of dispatched non-speculative instructions
system.cpu0.iew.iewDispSquashedInsts          8783674                       # Number of squashed instructions skipped by dispatch
system.cpu0.iew.iewDispStoreInsts           276903452                       # Number of dispatched store instructions
system.cpu0.iew.iewDispatchedInsts         2352320055                       # Number of instructions dispatched to IQ
system.cpu0.iew.iewExecLoadInsts            758200989                       # Number of load instructions executed
system.cpu0.iew.iewExecSquashedInsts         17291046                       # Number of squashed instructions skipped in execute
system.cpu0.iew.iewExecutedInsts           2333200012                       # Number of executed instructions
system.cpu0.iew.iewIQFullEvents               3757204                       # Number of times the IQ has become full, causing a stall
system.cpu0.iew.iewIdleCycles                       0                       # Number of cycles IEW is idle
system.cpu0.iew.iewLSQFullEvents              5439640                       # Number of times the LSQ has become full, causing a stall
system.cpu0.iew.iewSquashCycles              17690697                       # Number of cycles IEW is squashing
system.cpu0.iew.iewUnblockCycles             13330567                       # Number of cycles IEW is unblocking
system.cpu0.iew.lsq.thread0.blockedLoads            0                       # Number of blocked loads due to partial load-store forwarding
system.cpu0.iew.lsq.thread0.cacheBlocked       146837                       # Number of times an access to memory failed due to the cache being blocked
system.cpu0.iew.lsq.thread0.forwLoads        35931696                       # Number of loads that had data forwarded from stores
system.cpu0.iew.lsq.thread0.ignoredResponses        94142                       # Number of memory responses ignored because the instruction is squashed
system.cpu0.iew.lsq.thread0.invAddrLoads            0                       # Number of loads ignored due to an invalid address
system.cpu0.iew.lsq.thread0.invAddrSwpfs            0                       # Number of software prefetches ignored due to an invalid address
system.cpu0.iew.lsq.thread0.memOrderViolation        14924                       # Number of memory ordering violations
system.cpu0.iew.lsq.thread0.rescheduledLoads      8681871                       # Number of loads that were rescheduled
system.cpu0.iew.lsq.thread0.squashedLoads     64654828                       # Number of loads squashed
system.cpu0.iew.lsq.thread0.squashedStores      8379157                       # Number of stores squashed
system.cpu0.iew.memOrderViolationEvents         14924                       # Number of memory order violations
system.cpu0.iew.predictedNotTakenIncorrect      1986229                       # Number of branches that were predicted not taken incorrectly
system.cpu0.iew.predictedTakenIncorrect      16264827                       # Number of branches that were predicted taken incorrectly
system.cpu0.iew.wb_consumers               1036295015                       # num instructions consuming a value
system.cpu0.iew.wb_count                   2310413755                       # cumulative count of insts written-back
system.cpu0.iew.wb_fanout                    0.842416                       # average fanout of values written-back
system.cpu0.iew.wb_producers                872991155                       # num instructions producing a value
system.cpu0.iew.wb_rate                      0.586328                       # insts written-back per cycle
system.cpu0.iew.wb_sent                    2310549763                       # cumulative count of insts sent to commit
system.cpu0.int_regfile_reads              2847188580                       # number of integer regfile reads
system.cpu0.int_regfile_writes             1485931499                       # number of integer regfile writes
system.cpu0.ipc                              0.564562                       # IPC: Instructions Per Cycle
system.cpu0.ipc_total                        0.564562                       # IPC: Total IPC of All Threads
system.cpu0.iq.FU_type_0::No_OpClass          7611816      0.32%      0.32% # Type of FU issued
system.cpu0.iq.FU_type_0::IntAlu           1282535364     54.56%     54.89% # Type of FU issued
system.cpu0.iq.FU_type_0::IntMult            18650394      0.79%     55.68% # Type of FU issued
system.cpu0.iq.FU_type_0::IntDiv              3802441      0.16%     55.84% # Type of FU issued
system.cpu0.iq.FU_type_0::FloatAdd                  0      0.00%     55.84% # Type of FU issued
system.cpu0.iq.FU_type_0::FloatCmp                  4      0.00%     55.84% # Type of FU issued
system.cpu0.iq.FU_type_0::FloatCvt                 12      0.00%     55.84% # Type of FU issued
system.cpu0.iq.FU_type_0::FloatMult                 0      0.00%     55.84% # Type of FU issued
system.cpu0.iq.FU_type_0::FloatMultAcc              0      0.00%     55.84% # Type of FU issued
system.cpu0.iq.FU_type_0::FloatDiv                  2      0.00%     55.84% # Type of FU issued
system.cpu0.iq.FU_type_0::FloatMisc                 4      0.00%     55.84% # Type of FU issued
system.cpu0.iq.FU_type_0::FloatSqrt                 0      0.00%     55.84% # Type of FU issued
system.cpu0.iq.FU_type_0::SimdAdd                   0      0.00%     55.84% # Type of FU issued
system.cpu0.iq.FU_type_0::SimdAddAcc                0      0.00%     55.84% # Type of FU issued
system.cpu0.iq.FU_type_0::SimdAlu                   0      0.00%     55.84% # Type of FU issued
system.cpu0.iq.FU_type_0::SimdCmp                   0      0.00%     55.84% # Type of FU issued
system.cpu0.iq.FU_type_0::SimdCvt                   0      0.00%     55.84% # Type of FU issued
system.cpu0.iq.FU_type_0::SimdMisc                  0      0.00%     55.84% # Type of FU issued
system.cpu0.iq.FU_type_0::SimdMult                  0      0.00%     55.84% # Type of FU issued
system.cpu0.iq.FU_type_0::SimdMultAcc               0      0.00%     55.84% # Type of FU issued
system.cpu0.iq.FU_type_0::SimdShift                 0      0.00%     55.84% # Type of FU issued
system.cpu0.iq.FU_type_0::SimdShiftAcc              0      0.00%     55.84% # Type of FU issued
system.cpu0.iq.FU_type_0::SimdDiv                   0      0.00%     55.84% # Type of FU issued
system.cpu0.iq.FU_type_0::SimdSqrt                  0      0.00%     55.84% # Type of FU issued
system.cpu0.iq.FU_type_0::SimdFloatAdd              0      0.00%     55.84% # Type of FU issued
system.cpu0.iq.FU_type_0::SimdFloatAlu              0      0.00%     55.84% # Type of FU issued
system.cpu0.iq.FU_type_0::SimdFloatCmp              0      0.00%     55.84% # Type of FU issued
system.cpu0.iq.FU_type_0::SimdFloatCvt              0      0.00%     55.84% # Type of FU issued
system.cpu0.iq.FU_type_0::SimdFloatDiv              0      0.00%     55.84% # Type of FU issued
system.cpu0.iq.FU_type_0::SimdFloatMisc             0      0.00%     55.84% # Type of FU issued
system.cpu0.iq.FU_type_0::SimdFloatMult             0      0.00%     55.84% # Type of FU issued
system.cpu0.iq.FU_type_0::SimdFloatMultAcc            0      0.00%     55.84% # Type of FU issued
system.cpu0.iq.FU_type_0::SimdFloatSqrt             0      0.00%     55.84% # Type of FU issued
system.cpu0.iq.FU_type_0::SimdReduceAdd             0      0.00%     55.84% # Type of FU issued
system.cpu0.iq.FU_type_0::SimdReduceAlu             0      0.00%     55.84% # Type of FU issued
system.cpu0.iq.FU_type_0::SimdReduceCmp             0      0.00%     55.84% # Type of FU issued
system.cpu0.iq.FU_type_0::SimdFloatReduceAdd            0      0.00%     55.84% # Type of FU issued
system.cpu0.iq.FU_type_0::SimdFloatReduceCmp            0      0.00%     55.84% # Type of FU issued
system.cpu0.iq.FU_type_0::SimdAes                   0      0.00%     55.84% # Type of FU issued
system.cpu0.iq.FU_type_0::SimdAesMix                0      0.00%     55.84% # Type of FU issued
system.cpu0.iq.FU_type_0::SimdSha1Hash              0      0.00%     55.84% # Type of FU issued
system.cpu0.iq.FU_type_0::SimdSha1Hash2             0      0.00%     55.84% # Type of FU issued
system.cpu0.iq.FU_type_0::SimdSha256Hash            0      0.00%     55.84% # Type of FU issued
system.cpu0.iq.FU_type_0::SimdSha256Hash2            0      0.00%     55.84% # Type of FU issued
system.cpu0.iq.FU_type_0::SimdShaSigma2             0      0.00%     55.84% # Type of FU issued
system.cpu0.iq.FU_type_0::SimdShaSigma3             0      0.00%     55.84% # Type of FU issued
system.cpu0.iq.FU_type_0::SimdPredAlu               0      0.00%     55.84% # Type of FU issued
system.cpu0.iq.FU_type_0::MemRead           765929091     32.59%     88.43% # Type of FU issued
system.cpu0.iq.FU_type_0::MemWrite          271961898     11.57%    100.00% # Type of FU issued
system.cpu0.iq.FU_type_0::FloatMemRead             11      0.00%    100.00% # Type of FU issued
system.cpu0.iq.FU_type_0::FloatMemWrite            21      0.00%    100.00% # Type of FU issued
system.cpu0.iq.FU_type_0::IprAccess                 0      0.00%    100.00% # Type of FU issued
system.cpu0.iq.FU_type_0::InstPrefetch              0      0.00%    100.00% # Type of FU issued
system.cpu0.iq.FU_type_0::total            2350491058                       # Type of FU issued
system.cpu0.iq.fp_alu_accesses                     58                       # Number of floating point alu accesses
system.cpu0.iq.fp_inst_queue_reads                112                       # Number of floating instruction queue reads
system.cpu0.iq.fp_inst_queue_wakeup_accesses           53                       # Number of floating instruction queue wakeup accesses
system.cpu0.iq.fp_inst_queue_writes                80                       # Number of floating instruction queue writes
system.cpu0.iq.fu_busy_cnt                    4239914                       # FU busy when requested
system.cpu0.iq.fu_busy_rate                  0.001804                       # FU busy rate (busy events/executed inst)
system.cpu0.iq.fu_full::No_OpClass                  0      0.00%      0.00% # attempts to use FU when none available
system.cpu0.iq.fu_full::IntAlu                 630595     14.87%     14.87% # attempts to use FU when none available
system.cpu0.iq.fu_full::IntMult                    10      0.00%     14.87% # attempts to use FU when none available
system.cpu0.iq.fu_full::IntDiv                      0      0.00%     14.87% # attempts to use FU when none available
system.cpu0.iq.fu_full::FloatAdd                    0      0.00%     14.87% # attempts to use FU when none available
system.cpu0.iq.fu_full::FloatCmp                    0      0.00%     14.87% # attempts to use FU when none available
system.cpu0.iq.fu_full::FloatCvt                    0      0.00%     14.87% # attempts to use FU when none available
system.cpu0.iq.fu_full::FloatMult                   0      0.00%     14.87% # attempts to use FU when none available
system.cpu0.iq.fu_full::FloatMultAcc                0      0.00%     14.87% # attempts to use FU when none available
system.cpu0.iq.fu_full::FloatDiv                    0      0.00%     14.87% # attempts to use FU when none available
system.cpu0.iq.fu_full::FloatMisc                   0      0.00%     14.87% # attempts to use FU when none available
system.cpu0.iq.fu_full::FloatSqrt                   0      0.00%     14.87% # attempts to use FU when none available
system.cpu0.iq.fu_full::SimdAdd                     0      0.00%     14.87% # attempts to use FU when none available
system.cpu0.iq.fu_full::SimdAddAcc                  0      0.00%     14.87% # attempts to use FU when none available
system.cpu0.iq.fu_full::SimdAlu                     0      0.00%     14.87% # attempts to use FU when none available
system.cpu0.iq.fu_full::SimdCmp                     0      0.00%     14.87% # attempts to use FU when none available
system.cpu0.iq.fu_full::SimdCvt                     0      0.00%     14.87% # attempts to use FU when none available
system.cpu0.iq.fu_full::SimdMisc                    0      0.00%     14.87% # attempts to use FU when none available
system.cpu0.iq.fu_full::SimdMult                    0      0.00%     14.87% # attempts to use FU when none available
system.cpu0.iq.fu_full::SimdMultAcc                 0      0.00%     14.87% # attempts to use FU when none available
system.cpu0.iq.fu_full::SimdShift                   0      0.00%     14.87% # attempts to use FU when none available
system.cpu0.iq.fu_full::SimdShiftAcc                0      0.00%     14.87% # attempts to use FU when none available
system.cpu0.iq.fu_full::SimdDiv                     0      0.00%     14.87% # attempts to use FU when none available
system.cpu0.iq.fu_full::SimdSqrt                    0      0.00%     14.87% # attempts to use FU when none available
system.cpu0.iq.fu_full::SimdFloatAdd                0      0.00%     14.87% # attempts to use FU when none available
system.cpu0.iq.fu_full::SimdFloatAlu                0      0.00%     14.87% # attempts to use FU when none available
system.cpu0.iq.fu_full::SimdFloatCmp                0      0.00%     14.87% # attempts to use FU when none available
system.cpu0.iq.fu_full::SimdFloatCvt                0      0.00%     14.87% # attempts to use FU when none available
system.cpu0.iq.fu_full::SimdFloatDiv                0      0.00%     14.87% # attempts to use FU when none available
system.cpu0.iq.fu_full::SimdFloatMisc               0      0.00%     14.87% # attempts to use FU when none available
system.cpu0.iq.fu_full::SimdFloatMult               0      0.00%     14.87% # attempts to use FU when none available
system.cpu0.iq.fu_full::SimdFloatMultAcc            0      0.00%     14.87% # attempts to use FU when none available
system.cpu0.iq.fu_full::SimdFloatSqrt               0      0.00%     14.87% # attempts to use FU when none available
system.cpu0.iq.fu_full::SimdReduceAdd               0      0.00%     14.87% # attempts to use FU when none available
system.cpu0.iq.fu_full::SimdReduceAlu               0      0.00%     14.87% # attempts to use FU when none available
system.cpu0.iq.fu_full::SimdReduceCmp               0      0.00%     14.87% # attempts to use FU when none available
system.cpu0.iq.fu_full::SimdFloatReduceAdd            0      0.00%     14.87% # attempts to use FU when none available
system.cpu0.iq.fu_full::SimdFloatReduceCmp            0      0.00%     14.87% # attempts to use FU when none available
system.cpu0.iq.fu_full::SimdAes                     0      0.00%     14.87% # attempts to use FU when none available
system.cpu0.iq.fu_full::SimdAesMix                  0      0.00%     14.87% # attempts to use FU when none available
system.cpu0.iq.fu_full::SimdSha1Hash                0      0.00%     14.87% # attempts to use FU when none available
system.cpu0.iq.fu_full::SimdSha1Hash2               0      0.00%     14.87% # attempts to use FU when none available
system.cpu0.iq.fu_full::SimdSha256Hash              0      0.00%     14.87% # attempts to use FU when none available
system.cpu0.iq.fu_full::SimdSha256Hash2             0      0.00%     14.87% # attempts to use FU when none available
system.cpu0.iq.fu_full::SimdShaSigma2               0      0.00%     14.87% # attempts to use FU when none available
system.cpu0.iq.fu_full::SimdShaSigma3               0      0.00%     14.87% # attempts to use FU when none available
system.cpu0.iq.fu_full::SimdPredAlu                 0      0.00%     14.87% # attempts to use FU when none available
system.cpu0.iq.fu_full::MemRead               3228946     76.16%     91.03% # attempts to use FU when none available
system.cpu0.iq.fu_full::MemWrite               380359      8.97%    100.00% # attempts to use FU when none available
system.cpu0.iq.fu_full::FloatMemRead                0      0.00%    100.00% # attempts to use FU when none available
system.cpu0.iq.fu_full::FloatMemWrite               4      0.00%    100.00% # attempts to use FU when none available
system.cpu0.iq.fu_full::IprAccess                   0      0.00%    100.00% # attempts to use FU when none available
system.cpu0.iq.fu_full::InstPrefetch                0      0.00%    100.00% # attempts to use FU when none available
system.cpu0.iq.int_alu_accesses            2347119098                       # Number of integer alu accesses
system.cpu0.iq.int_inst_queue_reads        8355305305                       # Number of integer instruction queue reads
system.cpu0.iq.int_inst_queue_wakeup_accesses   2310413702                       # Number of integer instruction queue wakeup accesses
system.cpu0.iq.int_inst_queue_writes       2476201373                       # Number of integer instruction queue writes
system.cpu0.iq.iqInstsAdded                2340900171                       # Number of instructions added to the IQ (excludes non-spec)
system.cpu0.iq.iqInstsIssued               2350491058                       # Number of instructions issued
system.cpu0.iq.iqNonSpecInstsAdded           11419884                       # Number of non-speculative instructions added to the IQ
system.cpu0.iq.iqSquashedInstsExamined      123867633                       # Number of squashed instructions iterated over during squash; mainly for profiling
system.cpu0.iq.iqSquashedInstsIssued           226742                       # Number of squashed instructions issued
system.cpu0.iq.iqSquashedNonSpecRemoved           401                       # Number of squashed non-spec instructions that were removed
system.cpu0.iq.iqSquashedOperandsExamined     34996532                       # Number of squashed operands that are examined and possibly removed from graph
system.cpu0.iq.issued_per_cycle::samples   3649856645                       # Number of insts issued each cycle
system.cpu0.iq.issued_per_cycle::mean        0.643995                       # Number of insts issued each cycle
system.cpu0.iq.issued_per_cycle::stdev       0.852838                       # Number of insts issued each cycle
system.cpu0.iq.issued_per_cycle::underflows            0      0.00%      0.00% # Number of insts issued each cycle
system.cpu0.iq.issued_per_cycle::0         2002973236     54.88%     54.88% # Number of insts issued each cycle
system.cpu0.iq.issued_per_cycle::1         1115243138     30.56%     85.43% # Number of insts issued each cycle
system.cpu0.iq.issued_per_cycle::2          384029530     10.52%     95.96% # Number of insts issued each cycle
system.cpu0.iq.issued_per_cycle::3          128671813      3.53%     99.48% # Number of insts issued each cycle
system.cpu0.iq.issued_per_cycle::4           16059671      0.44%     99.92% # Number of insts issued each cycle
system.cpu0.iq.issued_per_cycle::5            1147645      0.03%     99.95% # Number of insts issued each cycle
system.cpu0.iq.issued_per_cycle::6            1167499      0.03%     99.98% # Number of insts issued each cycle
system.cpu0.iq.issued_per_cycle::7             321386      0.01%     99.99% # Number of insts issued each cycle
system.cpu0.iq.issued_per_cycle::8             242727      0.01%    100.00% # Number of insts issued each cycle
system.cpu0.iq.issued_per_cycle::overflows            0      0.00%    100.00% # Number of insts issued each cycle
system.cpu0.iq.issued_per_cycle::min_value            0                       # Number of insts issued each cycle
system.cpu0.iq.issued_per_cycle::max_value            8                       # Number of insts issued each cycle
system.cpu0.iq.issued_per_cycle::total     3649856645                       # Number of insts issued each cycle
system.cpu0.iq.rate                          0.596498                       # Inst issue rate
system.cpu0.iq.vec_alu_accesses                     0                       # Number of vector alu accesses
system.cpu0.iq.vec_inst_queue_reads                 0                       # Number of vector instruction queue reads
system.cpu0.iq.vec_inst_queue_wakeup_accesses            0                       # Number of vector instruction queue wakeup accesses
system.cpu0.iq.vec_inst_queue_writes                0                       # Number of vector instruction queue writes
system.cpu0.itb.accesses                            0                       # DTB accesses
system.cpu0.itb.hits                                0                       # DTB hits
system.cpu0.itb.misses                              0                       # DTB misses
system.cpu0.itb.read_accesses                       0                       # DTB read accesses
system.cpu0.itb.read_hits                           0                       # DTB read hits
system.cpu0.itb.read_misses                         0                       # DTB read misses
system.cpu0.itb.write_accesses                      0                       # DTB write accesses
system.cpu0.itb.write_hits                          0                       # DTB write hits
system.cpu0.itb.write_misses                        0                       # DTB write misses
system.cpu0.memDep0.conflictingLoads         34860905                       # Number of conflicting loads.
system.cpu0.memDep0.conflictingStores         7146694                       # Number of conflicting stores.
system.cpu0.memDep0.insertedLoads           756175448                       # Number of loads inserted to the mem dependence unit.
system.cpu0.memDep0.insertedStores          276903452                       # Number of stores inserted to the mem dependence unit.
system.cpu0.misc_regfile_reads                   2894                       # number of misc regfile reads
system.cpu0.misc_regfile_writes                    22                       # number of misc regfile writes
system.cpu0.numCycles                      3940482513                       # number of cpu cycles simulated
system.cpu0.numWorkItemsCompleted                   0                       # number of work items this cpu completed
system.cpu0.numWorkItemsStarted                     0                       # number of work items this cpu started
system.cpu0.quiesceCycles                     5807814                       # Total number of cycles that CPU has spent quiesced or waiting for an interrupt
system.cpu0.rename.BlockCycles              572696835                       # Number of cycles rename is blocking
system.cpu0.rename.CommittedMaps           1421251152                       # Number of HB maps that are committed
system.cpu0.rename.IQFullEvents              25023116                       # Number of times rename has blocked due to IQ full
system.cpu0.rename.IdleCycles              1370904927                       # Number of cycles rename is idle
system.cpu0.rename.LQFullEvents              13397653                       # Number of times rename has blocked due to LQ full
system.cpu0.rename.ROBFullEvents                72373                       # Number of times rename has blocked due to ROB full
system.cpu0.rename.RenameLookups           2902293785                       # Number of register rename lookups that rename has made
system.cpu0.rename.RenamedInsts            2380475788                       # Number of instructions processed by rename
system.cpu0.rename.RenamedOperands         1543454270                       # Number of destination operands rename has renamed
system.cpu0.rename.RunCycles               1634979049                       # Number of cycles rename is running
system.cpu0.rename.SQFullEvents              14535162                       # Number of times rename has blocked due to SQ full
system.cpu0.rename.SquashCycles              17690697                       # Number of cycles rename is squashing
system.cpu0.rename.UnblockCycles             53371518                       # Number of cycles rename is unblocking
system.cpu0.rename.UndoneMaps               122203114                       # Number of HB maps that are undone due to squashing
system.cpu0.rename.fp_rename_lookups               45                       # Number of floating rename lookups
system.cpu0.rename.int_rename_lookups      2902293740                       # Number of integer rename lookups
system.cpu0.rename.serializeStallCycles        213619                       # count of cycles rename stalled for serializing inst
system.cpu0.rename.serializingInsts              8827                       # count of serializing insts renamed
system.cpu0.rename.skidInsts                 50876236                       # count of insts added to the skid buffer
system.cpu0.rename.tempSerializingInsts          8818                       # count of temporary serializing insts renamed
system.cpu0.rob.rob_reads                  5915986658                       # The number of ROB reads
system.cpu0.rob.rob_writes                 4733318605                       # The number of ROB writes
system.cpu0.timesIdled                       42246220                       # Number of times that the entire CPU went into an idle state and unscheduled itself
system.cpu0.workload.numSyscalls                 2861                       # Number of system calls
system.cpu1.branchPred.BTBCorrect                   0                       # Number of correct BTB predictions (this stat may not work properly.
system.cpu1.branchPred.BTBHitPct            93.597835                       # BTB Hit Percentage
system.cpu1.branchPred.BTBHits               17382608                       # Number of BTB hits
system.cpu1.branchPred.BTBLookups            18571592                       # Number of BTB lookups
system.cpu1.branchPred.RASInCorrect                 0                       # Number of incorrect RAS predictions.
system.cpu1.branchPred.condIncorrect          1777612                       # Number of conditional branches incorrect
system.cpu1.branchPred.condPredicted         31353620                       # Number of conditional branches predicted
system.cpu1.branchPred.indirectHits            919670                       # Number of indirect target hits.
system.cpu1.branchPred.indirectLookups         927589                       # Number of indirect predictor lookups.
system.cpu1.branchPred.indirectMisses            7919                       # Number of indirect misses.
system.cpu1.branchPred.lookups               34538184                       # Number of BP lookups
system.cpu1.branchPred.usedRAS                      0                       # Number of times the RAS was used to get a target.
system.cpu1.branchPredindirectMispredicted        47364                       # Number of mispredicted indirect branches.
system.cpu1.commit.amos                       3801573                       # Number of atomic instructions committed
system.cpu1.commit.branchMispredicts          1371053                       # The number of times a branch was mispredicted
system.cpu1.commit.branches                  29515026                       # Number of branches committed
system.cpu1.commit.bw_lim_events              2462114                       # number cycles where commit BW limit reached
system.cpu1.commit.commitNonSpecStalls       11405395                       # The number of times commit has been forced to stall to communicate backwards
system.cpu1.commit.commitSquashedInsts       12075241                       # The number of squashed insts skipped by commit
system.cpu1.commit.committedInsts           130055981                       # Number of instructions committed
system.cpu1.commit.committedOps             133857733                       # Number of ops (including micro ops) committed
system.cpu1.commit.committed_per_cycle::samples    639205987                       # Number of insts commited each cycle
system.cpu1.commit.committed_per_cycle::mean     0.209413                       # Number of insts commited each cycle
system.cpu1.commit.committed_per_cycle::stdev     0.870887                       # Number of insts commited each cycle
system.cpu1.commit.committed_per_cycle::underflows            0      0.00%      0.00% # Number of insts commited each cycle
system.cpu1.commit.committed_per_cycle::0    581093762     90.91%     90.91% # Number of insts commited each cycle
system.cpu1.commit.committed_per_cycle::1     29315526      4.59%     95.49% # Number of insts commited each cycle
system.cpu1.commit.committed_per_cycle::2     10142370      1.59%     97.08% # Number of insts commited each cycle
system.cpu1.commit.committed_per_cycle::3      9329910      1.46%     98.54% # Number of insts commited each cycle
system.cpu1.commit.committed_per_cycle::4      2078759      0.33%     98.87% # Number of insts commited each cycle
system.cpu1.commit.committed_per_cycle::5       863695      0.14%     99.00% # Number of insts commited each cycle
system.cpu1.commit.committed_per_cycle::6      3501643      0.55%     99.55% # Number of insts commited each cycle
system.cpu1.commit.committed_per_cycle::7       418208      0.07%     99.61% # Number of insts commited each cycle
system.cpu1.commit.committed_per_cycle::8      2462114      0.39%    100.00% # Number of insts commited each cycle
system.cpu1.commit.committed_per_cycle::overflows            0      0.00%    100.00% # Number of insts commited each cycle
system.cpu1.commit.committed_per_cycle::min_value            0                       # Number of insts commited each cycle
system.cpu1.commit.committed_per_cycle::max_value            8                       # Number of insts commited each cycle
system.cpu1.commit.committed_per_cycle::total    639205987                       # Number of insts commited each cycle
system.cpu1.commit.fp_insts                        12                       # Number of committed floating point instructions.
system.cpu1.commit.function_calls             1456791                       # Number of function calls committed.
system.cpu1.commit.int_insts                125262148                       # Number of committed integer instructions.
system.cpu1.commit.loads                     36888463                       # Number of loads committed
system.cpu1.commit.membars                    7603268                       # Number of memory barriers committed
system.cpu1.commit.op_class_0::No_OpClass      7603268      5.68%      5.68% # Class of committed instruction
system.cpu1.commit.op_class_0::IntAlu        77443372     57.85%     63.54% # Class of committed instruction
system.cpu1.commit.op_class_0::IntMult             44      0.00%     63.54% # Class of committed instruction
system.cpu1.commit.op_class_0::IntDiv              88      0.00%     63.54% # Class of committed instruction
system.cpu1.commit.op_class_0::FloatAdd             0      0.00%     63.54% # Class of committed instruction
system.cpu1.commit.op_class_0::FloatCmp             0      0.00%     63.54% # Class of committed instruction
system.cpu1.commit.op_class_0::FloatCvt             0      0.00%     63.54% # Class of committed instruction
system.cpu1.commit.op_class_0::FloatMult            0      0.00%     63.54% # Class of committed instruction
system.cpu1.commit.op_class_0::FloatMultAcc            0      0.00%     63.54% # Class of committed instruction
system.cpu1.commit.op_class_0::FloatDiv             0      0.00%     63.54% # Class of committed instruction
system.cpu1.commit.op_class_0::FloatMisc            0      0.00%     63.54% # Class of committed instruction
system.cpu1.commit.op_class_0::FloatSqrt            0      0.00%     63.54% # Class of committed instruction
system.cpu1.commit.op_class_0::SimdAdd              0      0.00%     63.54% # Class of committed instruction
system.cpu1.commit.op_class_0::SimdAddAcc            0      0.00%     63.54% # Class of committed instruction
system.cpu1.commit.op_class_0::SimdAlu              0      0.00%     63.54% # Class of committed instruction
system.cpu1.commit.op_class_0::SimdCmp              0      0.00%     63.54% # Class of committed instruction
system.cpu1.commit.op_class_0::SimdCvt              0      0.00%     63.54% # Class of committed instruction
system.cpu1.commit.op_class_0::SimdMisc             0      0.00%     63.54% # Class of committed instruction
system.cpu1.commit.op_class_0::SimdMult             0      0.00%     63.54% # Class of committed instruction
system.cpu1.commit.op_class_0::SimdMultAcc            0      0.00%     63.54% # Class of committed instruction
system.cpu1.commit.op_class_0::SimdShift            0      0.00%     63.54% # Class of committed instruction
system.cpu1.commit.op_class_0::SimdShiftAcc            0      0.00%     63.54% # Class of committed instruction
system.cpu1.commit.op_class_0::SimdDiv              0      0.00%     63.54% # Class of committed instruction
system.cpu1.commit.op_class_0::SimdSqrt             0      0.00%     63.54% # Class of committed instruction
system.cpu1.commit.op_class_0::SimdFloatAdd            0      0.00%     63.54% # Class of committed instruction
system.cpu1.commit.op_class_0::SimdFloatAlu            0      0.00%     63.54% # Class of committed instruction
system.cpu1.commit.op_class_0::SimdFloatCmp            0      0.00%     63.54% # Class of committed instruction
system.cpu1.commit.op_class_0::SimdFloatCvt            0      0.00%     63.54% # Class of committed instruction
system.cpu1.commit.op_class_0::SimdFloatDiv            0      0.00%     63.54% # Class of committed instruction
system.cpu1.commit.op_class_0::SimdFloatMisc            0      0.00%     63.54% # Class of committed instruction
system.cpu1.commit.op_class_0::SimdFloatMult            0      0.00%     63.54% # Class of committed instruction
system.cpu1.commit.op_class_0::SimdFloatMultAcc            0      0.00%     63.54% # Class of committed instruction
system.cpu1.commit.op_class_0::SimdFloatSqrt            0      0.00%     63.54% # Class of committed instruction
system.cpu1.commit.op_class_0::SimdReduceAdd            0      0.00%     63.54% # Class of committed instruction
system.cpu1.commit.op_class_0::SimdReduceAlu            0      0.00%     63.54% # Class of committed instruction
system.cpu1.commit.op_class_0::SimdReduceCmp            0      0.00%     63.54% # Class of committed instruction
system.cpu1.commit.op_class_0::SimdFloatReduceAdd            0      0.00%     63.54% # Class of committed instruction
system.cpu1.commit.op_class_0::SimdFloatReduceCmp            0      0.00%     63.54% # Class of committed instruction
system.cpu1.commit.op_class_0::SimdAes              0      0.00%     63.54% # Class of committed instruction
system.cpu1.commit.op_class_0::SimdAesMix            0      0.00%     63.54% # Class of committed instruction
system.cpu1.commit.op_class_0::SimdSha1Hash            0      0.00%     63.54% # Class of committed instruction
system.cpu1.commit.op_class_0::SimdSha1Hash2            0      0.00%     63.54% # Class of committed instruction
system.cpu1.commit.op_class_0::SimdSha256Hash            0      0.00%     63.54% # Class of committed instruction
system.cpu1.commit.op_class_0::SimdSha256Hash2            0      0.00%     63.54% # Class of committed instruction
system.cpu1.commit.op_class_0::SimdShaSigma2            0      0.00%     63.54% # Class of committed instruction
system.cpu1.commit.op_class_0::SimdShaSigma3            0      0.00%     63.54% # Class of committed instruction
system.cpu1.commit.op_class_0::SimdPredAlu            0      0.00%     63.54% # Class of committed instruction
system.cpu1.commit.op_class_0::MemRead       40690036     30.40%     93.93% # Class of committed instruction
system.cpu1.commit.op_class_0::MemWrite       8120913      6.07%    100.00% # Class of committed instruction
system.cpu1.commit.op_class_0::FloatMemRead            0      0.00%    100.00% # Class of committed instruction
system.cpu1.commit.op_class_0::FloatMemWrite           12      0.00%    100.00% # Class of committed instruction
system.cpu1.commit.op_class_0::IprAccess            0      0.00%    100.00% # Class of committed instruction
system.cpu1.commit.op_class_0::InstPrefetch            0      0.00%    100.00% # Class of committed instruction
system.cpu1.commit.op_class_0::total        133857733                       # Class of committed instruction
system.cpu1.commit.refs                      48810961                       # Number of memory references committed
system.cpu1.commit.swp_count                        0                       # Number of s/w prefetches committed
system.cpu1.commit.vec_insts                        0                       # Number of committed Vector instructions.
system.cpu1.committedInsts                  130055981                       # Number of Instructions Simulated
system.cpu1.committedOps                    133857733                       # Number of Ops (including micro ops) Simulated
system.cpu1.cpi                              4.952390                       # CPI: Cycles Per Instruction
system.cpu1.cpi_total                        4.952390                       # CPI: Total CPI of All Threads
system.cpu1.decode.BlockedCycles            556501549                       # Number of cycles decode is blocked
system.cpu1.decode.BranchMispred               423830                       # Number of times decode detected a branch misprediction
system.cpu1.decode.BranchResolved            16742018                       # Number of times decode resolved a branch
system.cpu1.decode.DecodedInsts             151341406                       # Number of instructions handled by decode
system.cpu1.decode.IdleCycles                23008650                       # Number of cycles decode is idle
system.cpu1.decode.RunCycles                 52383573                       # Number of cycles decode is running
system.cpu1.decode.SquashCycles               1371987                       # Number of cycles decode is squashing
system.cpu1.decode.SquashedInsts              1159785                       # Number of squashed instructions handled by decode
system.cpu1.decode.UnblockCycles              8400987                       # Number of cycles decode is unblocking
system.cpu1.dtb.accesses                            0                       # DTB accesses
system.cpu1.dtb.hits                                0                       # DTB hits
system.cpu1.dtb.misses                              0                       # DTB misses
system.cpu1.dtb.read_accesses                       0                       # DTB read accesses
system.cpu1.dtb.read_hits                           0                       # DTB read hits
system.cpu1.dtb.read_misses                         0                       # DTB read misses
system.cpu1.dtb.write_accesses                      0                       # DTB write accesses
system.cpu1.dtb.write_hits                          0                       # DTB write hits
system.cpu1.dtb.write_misses                        0                       # DTB write misses
system.cpu1.fetch.Branches                   34538184                       # Number of branches that fetch encountered
system.cpu1.fetch.CacheLines                 22634853                       # Number of cache lines fetched
system.cpu1.fetch.Cycles                    615335436                       # Number of cycles fetch has run and was not squashing or blocked
system.cpu1.fetch.IcacheSquashes               350793                       # Number of outstanding Icache misses that were squashed
system.cpu1.fetch.Insts                     152565539                       # Number of instructions fetch has processed
system.cpu1.fetch.MiscStallCycles                   1                       # Number of cycles fetch has spent waiting on interrupts, or bad addresses, or out of MSHRs
system.cpu1.fetch.SquashCycles                3557092                       # Number of cycles fetch has spent squashing
system.cpu1.fetch.branchRate                 0.053623                       # Number of branch fetches per cycle
system.cpu1.fetch.icacheStallCycles          24552763                       # Number of cycles fetch is stalled on an Icache miss
system.cpu1.fetch.predictedBranches          18302278                       # Number of branches that fetch has predicted taken
system.cpu1.fetch.rate                       0.236871                       # Number of inst fetches per cycle
system.cpu1.fetch.rateDist::samples         641666746                       # Number of instructions fetched each cycle (Total)
system.cpu1.fetch.rateDist::mean             0.243690                       # Number of instructions fetched each cycle (Total)
system.cpu1.fetch.rateDist::stdev            0.690400                       # Number of instructions fetched each cycle (Total)
system.cpu1.fetch.rateDist::underflows              0      0.00%      0.00% # Number of instructions fetched each cycle (Total)
system.cpu1.fetch.rateDist::0               546114749     85.11%     85.11% # Number of instructions fetched each cycle (Total)
system.cpu1.fetch.rateDist::1                57206742      8.92%     94.02% # Number of instructions fetched each cycle (Total)
system.cpu1.fetch.rateDist::2                23067984      3.60%     97.62% # Number of instructions fetched each cycle (Total)
system.cpu1.fetch.rateDist::3                10536417      1.64%     99.26% # Number of instructions fetched each cycle (Total)
system.cpu1.fetch.rateDist::4                 3150315      0.49%     99.75% # Number of instructions fetched each cycle (Total)
system.cpu1.fetch.rateDist::5                  729759      0.11%     99.87% # Number of instructions fetched each cycle (Total)
system.cpu1.fetch.rateDist::6                  860302      0.13%    100.00% # Number of instructions fetched each cycle (Total)
system.cpu1.fetch.rateDist::7                      13      0.00%    100.00% # Number of instructions fetched each cycle (Total)
system.cpu1.fetch.rateDist::8                     465      0.00%    100.00% # Number of instructions fetched each cycle (Total)
system.cpu1.fetch.rateDist::overflows               0      0.00%    100.00% # Number of instructions fetched each cycle (Total)
system.cpu1.fetch.rateDist::min_value               0                       # Number of instructions fetched each cycle (Total)
system.cpu1.fetch.rateDist::max_value               8                       # Number of instructions fetched each cycle (Total)
system.cpu1.fetch.rateDist::total           641666746                       # Number of instructions fetched each cycle (Total)
system.cpu1.fp_regfile_reads                       12                       # number of floating regfile reads
system.cpu1.idleCycles                        2421202                       # Total number of cycles that the CPU has spent unscheduled due to idling
system.cpu1.iew.branchMispredicts             1463259                       # Number of branch mispredicts detected at execute
system.cpu1.iew.exec_branches                31133601                       # Number of branches executed
system.cpu1.iew.exec_nop                            0                       # number of nop insts executed
system.cpu1.iew.exec_rate                    0.221115                       # Inst execution rate
system.cpu1.iew.exec_refs                    51710902                       # number of memory reference insts executed
system.cpu1.iew.exec_stores                  12401887                       # Number of stores executed
system.cpu1.iew.exec_swp                            0                       # number of swp insts executed
system.cpu1.iew.iewBlockCycles              480199238                       # Number of cycles IEW is blocking
system.cpu1.iew.iewDispLoadInsts             39754723                       # Number of dispatched load instructions
system.cpu1.iew.iewDispNonSpecInsts           3802242                       # Number of dispatched non-speculative instructions
system.cpu1.iew.iewDispSquashedInsts          1487270                       # Number of squashed instructions skipped by dispatch
system.cpu1.iew.iewDispStoreInsts            12759865                       # Number of dispatched store instructions
system.cpu1.iew.iewDispatchedInsts          145919809                       # Number of instructions dispatched to IQ
system.cpu1.iew.iewExecLoadInsts             39309015                       # Number of load instructions executed
system.cpu1.iew.iewExecSquashedInsts          1285050                       # Number of squashed instructions skipped in execute
system.cpu1.iew.iewExecutedInsts            142417233                       # Number of executed instructions
system.cpu1.iew.iewIQFullEvents               3147788                       # Number of times the IQ has become full, causing a stall
system.cpu1.iew.iewIdleCycles                       0                       # Number of cycles IEW is idle
system.cpu1.iew.iewLSQFullEvents              4166887                       # Number of times the LSQ has become full, causing a stall
system.cpu1.iew.iewSquashCycles               1371987                       # Number of cycles IEW is squashing
system.cpu1.iew.iewUnblockCycles             11807395                       # Number of cycles IEW is unblocking
system.cpu1.iew.lsq.thread0.blockedLoads            0                       # Number of blocked loads due to partial load-store forwarding
system.cpu1.iew.lsq.thread0.cacheBlocked        36577                       # Number of times an access to memory failed due to the cache being blocked
system.cpu1.iew.lsq.thread0.forwLoads          990057                       # Number of loads that had data forwarded from stores
system.cpu1.iew.lsq.thread0.ignoredResponses        34305                       # Number of memory responses ignored because the instruction is squashed
system.cpu1.iew.lsq.thread0.invAddrLoads            0                       # Number of loads ignored due to an invalid address
system.cpu1.iew.lsq.thread0.invAddrSwpfs            0                       # Number of software prefetches ignored due to an invalid address
system.cpu1.iew.lsq.thread0.memOrderViolation         1122                       # Number of memory ordering violations
system.cpu1.iew.lsq.thread0.rescheduledLoads         2690                       # Number of loads that were rescheduled
system.cpu1.iew.lsq.thread0.squashedLoads      2866260                       # Number of loads squashed
system.cpu1.iew.lsq.thread0.squashedStores       837367                       # Number of stores squashed
system.cpu1.iew.memOrderViolationEvents          1122                       # Number of memory order violations
system.cpu1.iew.predictedNotTakenIncorrect       489427                       # Number of branches that were predicted not taken incorrectly
system.cpu1.iew.predictedTakenIncorrect        973832                       # Number of branches that were predicted taken incorrectly
system.cpu1.iew.wb_consumers                 80328825                       # num instructions consuming a value
system.cpu1.iew.wb_count                    141491781                       # cumulative count of insts written-back
system.cpu1.iew.wb_fanout                    0.851854                       # average fanout of values written-back
system.cpu1.iew.wb_producers                 68428471                       # num instructions producing a value
system.cpu1.iew.wb_rate                      0.219678                       # insts written-back per cycle
system.cpu1.iew.wb_sent                     141538159                       # cumulative count of insts sent to commit
system.cpu1.int_regfile_reads               177079753                       # number of integer regfile reads
system.cpu1.int_regfile_writes               94965151                       # number of integer regfile writes
system.cpu1.ipc                              0.201923                       # IPC: Instructions Per Cycle
system.cpu1.ipc_total                        0.201923                       # IPC: Total IPC of All Threads
system.cpu1.iq.FU_type_0::No_OpClass          7603371      5.29%      5.29% # Type of FU issued
system.cpu1.iq.FU_type_0::IntAlu             84051311     58.49%     63.78% # Type of FU issued
system.cpu1.iq.FU_type_0::IntMult                  46      0.00%     63.78% # Type of FU issued
system.cpu1.iq.FU_type_0::IntDiv                   88      0.00%     63.78% # Type of FU issued
system.cpu1.iq.FU_type_0::FloatAdd                  0      0.00%     63.78% # Type of FU issued
system.cpu1.iq.FU_type_0::FloatCmp                  0      0.00%     63.78% # Type of FU issued
system.cpu1.iq.FU_type_0::FloatCvt                  0      0.00%     63.78% # Type of FU issued
system.cpu1.iq.FU_type_0::FloatMult                 0      0.00%     63.78% # Type of FU issued
system.cpu1.iq.FU_type_0::FloatMultAcc              0      0.00%     63.78% # Type of FU issued
system.cpu1.iq.FU_type_0::FloatDiv                  0      0.00%     63.78% # Type of FU issued
system.cpu1.iq.FU_type_0::FloatMisc                 0      0.00%     63.78% # Type of FU issued
system.cpu1.iq.FU_type_0::FloatSqrt                 0      0.00%     63.78% # Type of FU issued
system.cpu1.iq.FU_type_0::SimdAdd                   0      0.00%     63.78% # Type of FU issued
system.cpu1.iq.FU_type_0::SimdAddAcc                0      0.00%     63.78% # Type of FU issued
system.cpu1.iq.FU_type_0::SimdAlu                   0      0.00%     63.78% # Type of FU issued
system.cpu1.iq.FU_type_0::SimdCmp                   0      0.00%     63.78% # Type of FU issued
system.cpu1.iq.FU_type_0::SimdCvt                   0      0.00%     63.78% # Type of FU issued
system.cpu1.iq.FU_type_0::SimdMisc                  0      0.00%     63.78% # Type of FU issued
system.cpu1.iq.FU_type_0::SimdMult                  0      0.00%     63.78% # Type of FU issued
system.cpu1.iq.FU_type_0::SimdMultAcc               0      0.00%     63.78% # Type of FU issued
system.cpu1.iq.FU_type_0::SimdShift                 0      0.00%     63.78% # Type of FU issued
system.cpu1.iq.FU_type_0::SimdShiftAcc              0      0.00%     63.78% # Type of FU issued
system.cpu1.iq.FU_type_0::SimdDiv                   0      0.00%     63.78% # Type of FU issued
system.cpu1.iq.FU_type_0::SimdSqrt                  0      0.00%     63.78% # Type of FU issued
system.cpu1.iq.FU_type_0::SimdFloatAdd              0      0.00%     63.78% # Type of FU issued
system.cpu1.iq.FU_type_0::SimdFloatAlu              0      0.00%     63.78% # Type of FU issued
system.cpu1.iq.FU_type_0::SimdFloatCmp              0      0.00%     63.78% # Type of FU issued
system.cpu1.iq.FU_type_0::SimdFloatCvt              0      0.00%     63.78% # Type of FU issued
system.cpu1.iq.FU_type_0::SimdFloatDiv              0      0.00%     63.78% # Type of FU issued
system.cpu1.iq.FU_type_0::SimdFloatMisc             0      0.00%     63.78% # Type of FU issued
system.cpu1.iq.FU_type_0::SimdFloatMult             0      0.00%     63.78% # Type of FU issued
system.cpu1.iq.FU_type_0::SimdFloatMultAcc            0      0.00%     63.78% # Type of FU issued
system.cpu1.iq.FU_type_0::SimdFloatSqrt             0      0.00%     63.78% # Type of FU issued
system.cpu1.iq.FU_type_0::SimdReduceAdd             0      0.00%     63.78% # Type of FU issued
system.cpu1.iq.FU_type_0::SimdReduceAlu             0      0.00%     63.78% # Type of FU issued
system.cpu1.iq.FU_type_0::SimdReduceCmp             0      0.00%     63.78% # Type of FU issued
system.cpu1.iq.FU_type_0::SimdFloatReduceAdd            0      0.00%     63.78% # Type of FU issued
system.cpu1.iq.FU_type_0::SimdFloatReduceCmp            0      0.00%     63.78% # Type of FU issued
system.cpu1.iq.FU_type_0::SimdAes                   0      0.00%     63.78% # Type of FU issued
system.cpu1.iq.FU_type_0::SimdAesMix                0      0.00%     63.78% # Type of FU issued
system.cpu1.iq.FU_type_0::SimdSha1Hash              0      0.00%     63.78% # Type of FU issued
system.cpu1.iq.FU_type_0::SimdSha1Hash2             0      0.00%     63.78% # Type of FU issued
system.cpu1.iq.FU_type_0::SimdSha256Hash            0      0.00%     63.78% # Type of FU issued
system.cpu1.iq.FU_type_0::SimdSha256Hash2            0      0.00%     63.78% # Type of FU issued
system.cpu1.iq.FU_type_0::SimdShaSigma2             0      0.00%     63.78% # Type of FU issued
system.cpu1.iq.FU_type_0::SimdShaSigma3             0      0.00%     63.78% # Type of FU issued
system.cpu1.iq.FU_type_0::SimdPredAlu               0      0.00%     63.78% # Type of FU issued
system.cpu1.iq.FU_type_0::MemRead            43397532     30.20%     93.98% # Type of FU issued
system.cpu1.iq.FU_type_0::MemWrite            8649923      6.02%    100.00% # Type of FU issued
system.cpu1.iq.FU_type_0::FloatMemRead              0      0.00%    100.00% # Type of FU issued
system.cpu1.iq.FU_type_0::FloatMemWrite            12      0.00%    100.00% # Type of FU issued
system.cpu1.iq.FU_type_0::IprAccess                 0      0.00%    100.00% # Type of FU issued
system.cpu1.iq.FU_type_0::InstPrefetch              0      0.00%    100.00% # Type of FU issued
system.cpu1.iq.FU_type_0::total             143702283                       # Type of FU issued
system.cpu1.iq.fp_alu_accesses                     16                       # Number of floating point alu accesses
system.cpu1.iq.fp_inst_queue_reads                 28                       # Number of floating instruction queue reads
system.cpu1.iq.fp_inst_queue_wakeup_accesses           12                       # Number of floating instruction queue wakeup accesses
system.cpu1.iq.fp_inst_queue_writes                12                       # Number of floating instruction queue writes
system.cpu1.iq.fu_busy_cnt                    3781885                       # FU busy when requested
system.cpu1.iq.fu_busy_rate                  0.026318                       # FU busy rate (busy events/executed inst)
system.cpu1.iq.fu_full::No_OpClass                  0      0.00%      0.00% # attempts to use FU when none available
system.cpu1.iq.fu_full::IntAlu                 496107     13.12%     13.12% # attempts to use FU when none available
system.cpu1.iq.fu_full::IntMult                     0      0.00%     13.12% # attempts to use FU when none available
system.cpu1.iq.fu_full::IntDiv                      0      0.00%     13.12% # attempts to use FU when none available
system.cpu1.iq.fu_full::FloatAdd                    0      0.00%     13.12% # attempts to use FU when none available
system.cpu1.iq.fu_full::FloatCmp                    0      0.00%     13.12% # attempts to use FU when none available
system.cpu1.iq.fu_full::FloatCvt                    0      0.00%     13.12% # attempts to use FU when none available
system.cpu1.iq.fu_full::FloatMult                   0      0.00%     13.12% # attempts to use FU when none available
system.cpu1.iq.fu_full::FloatMultAcc                0      0.00%     13.12% # attempts to use FU when none available
system.cpu1.iq.fu_full::FloatDiv                    0      0.00%     13.12% # attempts to use FU when none available
system.cpu1.iq.fu_full::FloatMisc                   0      0.00%     13.12% # attempts to use FU when none available
system.cpu1.iq.fu_full::FloatSqrt                   0      0.00%     13.12% # attempts to use FU when none available
system.cpu1.iq.fu_full::SimdAdd                     0      0.00%     13.12% # attempts to use FU when none available
system.cpu1.iq.fu_full::SimdAddAcc                  0      0.00%     13.12% # attempts to use FU when none available
system.cpu1.iq.fu_full::SimdAlu                     0      0.00%     13.12% # attempts to use FU when none available
system.cpu1.iq.fu_full::SimdCmp                     0      0.00%     13.12% # attempts to use FU when none available
system.cpu1.iq.fu_full::SimdCvt                     0      0.00%     13.12% # attempts to use FU when none available
system.cpu1.iq.fu_full::SimdMisc                    0      0.00%     13.12% # attempts to use FU when none available
system.cpu1.iq.fu_full::SimdMult                    0      0.00%     13.12% # attempts to use FU when none available
system.cpu1.iq.fu_full::SimdMultAcc                 0      0.00%     13.12% # attempts to use FU when none available
system.cpu1.iq.fu_full::SimdShift                   0      0.00%     13.12% # attempts to use FU when none available
system.cpu1.iq.fu_full::SimdShiftAcc                0      0.00%     13.12% # attempts to use FU when none available
system.cpu1.iq.fu_full::SimdDiv                     0      0.00%     13.12% # attempts to use FU when none available
system.cpu1.iq.fu_full::SimdSqrt                    0      0.00%     13.12% # attempts to use FU when none available
system.cpu1.iq.fu_full::SimdFloatAdd                0      0.00%     13.12% # attempts to use FU when none available
system.cpu1.iq.fu_full::SimdFloatAlu                0      0.00%     13.12% # attempts to use FU when none available
system.cpu1.iq.fu_full::SimdFloatCmp                0      0.00%     13.12% # attempts to use FU when none available
system.cpu1.iq.fu_full::SimdFloatCvt                0      0.00%     13.12% # attempts to use FU when none available
system.cpu1.iq.fu_full::SimdFloatDiv                0      0.00%     13.12% # attempts to use FU when none available
system.cpu1.iq.fu_full::SimdFloatMisc               0      0.00%     13.12% # attempts to use FU when none available
system.cpu1.iq.fu_full::SimdFloatMult               0      0.00%     13.12% # attempts to use FU when none available
system.cpu1.iq.fu_full::SimdFloatMultAcc            0      0.00%     13.12% # attempts to use FU when none available
system.cpu1.iq.fu_full::SimdFloatSqrt               0      0.00%     13.12% # attempts to use FU when none available
system.cpu1.iq.fu_full::SimdReduceAdd               0      0.00%     13.12% # attempts to use FU when none available
system.cpu1.iq.fu_full::SimdReduceAlu               0      0.00%     13.12% # attempts to use FU when none available
system.cpu1.iq.fu_full::SimdReduceCmp               0      0.00%     13.12% # attempts to use FU when none available
system.cpu1.iq.fu_full::SimdFloatReduceAdd            0      0.00%     13.12% # attempts to use FU when none available
system.cpu1.iq.fu_full::SimdFloatReduceCmp            0      0.00%     13.12% # attempts to use FU when none available
system.cpu1.iq.fu_full::SimdAes                     0      0.00%     13.12% # attempts to use FU when none available
system.cpu1.iq.fu_full::SimdAesMix                  0      0.00%     13.12% # attempts to use FU when none available
system.cpu1.iq.fu_full::SimdSha1Hash                0      0.00%     13.12% # attempts to use FU when none available
system.cpu1.iq.fu_full::SimdSha1Hash2               0      0.00%     13.12% # attempts to use FU when none available
system.cpu1.iq.fu_full::SimdSha256Hash              0      0.00%     13.12% # attempts to use FU when none available
system.cpu1.iq.fu_full::SimdSha256Hash2             0      0.00%     13.12% # attempts to use FU when none available
system.cpu1.iq.fu_full::SimdShaSigma2               0      0.00%     13.12% # attempts to use FU when none available
system.cpu1.iq.fu_full::SimdShaSigma3               0      0.00%     13.12% # attempts to use FU when none available
system.cpu1.iq.fu_full::SimdPredAlu                 0      0.00%     13.12% # attempts to use FU when none available
system.cpu1.iq.fu_full::MemRead               3017490     79.79%     92.91% # attempts to use FU when none available
system.cpu1.iq.fu_full::MemWrite               268284      7.09%    100.00% # attempts to use FU when none available
[...]
system.cpu1.dcache.WriteReq_misses::.cpu1.data      1145443                       # number of WriteReq misses
system.cpu1.dcache.WriteReq_misses::total      1145443                       # number of WriteReq misses
system.cpu1.dcache.WriteReq_miss_latency::.cpu1.data  56620963152                       # number of WriteReq miss cycles
system.cpu1.dcache.WriteReq_miss_latency::total  56620963152                       # number of WriteReq miss cycles
system.cpu1.dcache.WriteReq_accesses::.cpu1.data      4651378                       # number of WriteReq accesses(hits+misses)
system.cpu1.dcache.WriteReq_accesses::total      4651378                       # number of WriteReq accesses(hits+misses)
system.cpu1.dcache.WriteReq_miss_rate::.cpu1.data     0.246259                       # miss rate for WriteReq accesses
system.cpu1.dcache.WriteReq_miss_rate::total     0.246259                       # miss rate for WriteReq accesses
system.cpu1.dcache.WriteReq_avg_miss_latency::.cpu1.data 49431.497815                       # average WriteReq miss latency
system.cpu1.dcache.WriteReq_avg_miss_latency::total 49431.497815                       # average WriteReq miss latency
system.cpu1.dcache.WriteReq_mshr_hits::.cpu1.data       923686                       # number of WriteReq MSHR hits
system.cpu1.dcache.WriteReq_mshr_hits::total       923686                       # number of WriteReq MSHR hits
system.cpu1.dcache.WriteReq_mshr_misses::.cpu1.data       221757                       # number of WriteReq MSHR misses
system.cpu1.dcache.WriteReq_mshr_misses::total       221757                       # number of WriteReq MSHR misses
system.cpu1.dcache.WriteReq_mshr_miss_latency::.cpu1.data   7544789880                       # number of WriteReq MSHR miss cycles
system.cpu1.dcache.WriteReq_mshr_miss_latency::total   7544789880                       # number of WriteReq MSHR miss cycles
system.cpu1.dcache.WriteReq_mshr_miss_rate::.cpu1.data     0.047676                       # mshr miss rate for WriteReq accesses
system.cpu1.dcache.WriteReq_mshr_miss_rate::total     0.047676                       # mshr miss rate for WriteReq accesses
system.cpu1.dcache.WriteReq_avg_mshr_miss_latency::.cpu1.data 34022.781152                       # average WriteReq mshr miss latency
system.cpu1.dcache.WriteReq_avg_mshr_miss_latency::total 34022.781152                       # average WriteReq mshr miss latency
system.cpu1.dcache.LoadLockedReq_hits::.cpu1.data       137665                       # number of LoadLockedReq hits
system.cpu1.dcache.LoadLockedReq_hits::total       137665                       # number of LoadLockedReq hits
system.cpu1.dcache.LoadLockedReq_misses::.cpu1.data          781                       # number of LoadLockedReq misses
system.cpu1.dcache.LoadLockedReq_misses::total          781                       # number of LoadLockedReq misses
system.cpu1.dcache.LoadLockedReq_miss_latency::.cpu1.data     44112000                       # number of LoadLockedReq miss cycles
system.cpu1.dcache.LoadLockedReq_miss_latency::total     44112000                       # number of LoadLockedReq miss cycles
system.cpu1.dcache.LoadLockedReq_accesses::.cpu1.data       138446                       # number of LoadLockedReq accesses(hits+misses)
system.cpu1.dcache.LoadLockedReq_accesses::total       138446                       # number of LoadLockedReq accesses(hits+misses)
system.cpu1.dcache.LoadLockedReq_miss_rate::.cpu1.data     0.005641                       # miss rate for LoadLockedReq accesses
system.cpu1.dcache.LoadLockedReq_miss_rate::total     0.005641                       # miss rate for LoadLockedReq accesses
system.cpu1.dcache.LoadLockedReq_avg_miss_latency::.cpu1.data 56481.434059                       # average LoadLockedReq miss latency
system.cpu1.dcache.LoadLockedReq_avg_miss_latency::total 56481.434059                       # average LoadLockedReq miss latency
system.cpu1.dcache.LoadLockedReq_mshr_hits::.cpu1.data          314                       # number of LoadLockedReq MSHR hits
system.cpu1.dcache.LoadLockedReq_mshr_hits::total          314                       # number of LoadLockedReq MSHR hits
system.cpu1.dcache.LoadLockedReq_mshr_misses::.cpu1.data          467                       # number of LoadLockedReq MSHR misses
system.cpu1.dcache.LoadLockedReq_mshr_misses::total          467                       # number of LoadLockedReq MSHR misses
system.cpu1.dcache.LoadLockedReq_mshr_miss_latency::.cpu1.data     23756000                       # number of LoadLockedReq MSHR miss cycles
system.cpu1.dcache.LoadLockedReq_mshr_miss_latency::total     23756000                       # number of LoadLockedReq MSHR miss cycles
system.cpu1.dcache.LoadLockedReq_mshr_miss_rate::.cpu1.data     0.003373                       # mshr miss rate for LoadLockedReq accesses
system.cpu1.dcache.LoadLockedReq_mshr_miss_rate::total     0.003373                       # mshr miss rate for LoadLockedReq accesses
system.cpu1.dcache.LoadLockedReq_avg_mshr_miss_latency::.cpu1.data 50869.379015                       # average LoadLockedReq mshr miss latency
system.cpu1.dcache.LoadLockedReq_avg_mshr_miss_latency::total 50869.379015                       # average LoadLockedReq mshr miss latency
system.cpu1.dcache.StoreCondReq_hits::.cpu1.data       136240                       # number of StoreCondReq hits
system.cpu1.dcache.StoreCondReq_hits::total       136240                       # number of StoreCondReq hits
system.cpu1.dcache.StoreCondReq_misses::.cpu1.data         1885                       # number of StoreCondReq misses
system.cpu1.dcache.StoreCondReq_misses::total         1885                       # number of StoreCondReq misses
system.cpu1.dcache.StoreCondReq_miss_latency::.cpu1.data     13663500                       # number of StoreCondReq miss cycles
system.cpu1.dcache.StoreCondReq_miss_latency::total     13663500                       # number of StoreCondReq miss cycles
system.cpu1.dcache.StoreCondReq_accesses::.cpu1.data       138125                       # number of StoreCondReq accesses(hits+misses)
system.cpu1.dcache.StoreCondReq_accesses::total       138125                       # number of StoreCondReq accesses(hits+misses)
system.cpu1.dcache.StoreCondReq_miss_rate::.cpu1.data     0.013647                       # miss rate for StoreCondReq accesses
system.cpu1.dcache.StoreCondReq_miss_rate::total     0.013647                       # miss rate for StoreCondReq accesses
system.cpu1.dcache.StoreCondReq_avg_miss_latency::.cpu1.data  7248.541114                       # average StoreCondReq miss latency
system.cpu1.dcache.StoreCondReq_avg_miss_latency::total  7248.541114                       # average StoreCondReq miss latency
system.cpu1.dcache.StoreCondReq_mshr_misses::.cpu1.data         1858                       # number of StoreCondReq MSHR misses
system.cpu1.dcache.StoreCondReq_mshr_misses::total         1858                       # number of StoreCondReq MSHR misses
system.cpu1.dcache.StoreCondReq_mshr_miss_latency::.cpu1.data     11818500                       # number of StoreCondReq MSHR miss cycles
system.cpu1.dcache.StoreCondReq_mshr_miss_latency::total     11818500                       # number of StoreCondReq MSHR miss cycles
system.cpu1.dcache.StoreCondReq_mshr_miss_rate::.cpu1.data     0.013452                       # mshr miss rate for StoreCondReq accesses
system.cpu1.dcache.StoreCondReq_mshr_miss_rate::total     0.013452                       # mshr miss rate for StoreCondReq accesses
system.cpu1.dcache.StoreCondReq_avg_mshr_miss_latency::.cpu1.data  6360.871905                       # average StoreCondReq mshr miss latency
system.cpu1.dcache.StoreCondReq_avg_mshr_miss_latency::total  6360.871905                       # average StoreCondReq mshr miss latency
system.cpu1.dcache.StoreCondFailReq_miss_latency::.cpu1.data       185000                       # number of StoreCondFailReq miss cycles
system.cpu1.dcache.StoreCondFailReq_miss_latency::total       185000                       # number of StoreCondFailReq miss cycles
system.cpu1.dcache.StoreCondFailReq_avg_miss_latency::.cpu1.data          inf                       # average StoreCondFailReq miss latency
system.cpu1.dcache.StoreCondFailReq_avg_miss_latency::total          inf                       # average StoreCondFailReq miss latency
system.cpu1.dcache.StoreCondFailReq_mshr_miss_latency::.cpu1.data       172000                       # number of StoreCondFailReq MSHR miss cycles
system.cpu1.dcache.StoreCondFailReq_mshr_miss_latency::total       172000                       # number of StoreCondFailReq MSHR miss cycles
system.cpu1.dcache.StoreCondFailReq_avg_mshr_miss_latency::.cpu1.data          inf                       # average StoreCondFailReq mshr miss latency
system.cpu1.dcache.StoreCondFailReq_avg_mshr_miss_latency::total          inf                       # average StoreCondFailReq mshr miss latency
system.cpu1.dcache.SwapReq_hits::.cpu1.data         1754                       # number of SwapReq hits
system.cpu1.dcache.SwapReq_hits::total           1754                       # number of SwapReq hits
system.cpu1.dcache.SwapReq_misses::.cpu1.data         7132                       # number of SwapReq misses
system.cpu1.dcache.SwapReq_misses::total         7132                       # number of SwapReq misses
system.cpu1.dcache.SwapReq_miss_latency::.cpu1.data    122721500                       # number of SwapReq miss cycles
system.cpu1.dcache.SwapReq_miss_latency::total    122721500                       # number of SwapReq miss cycles
system.cpu1.dcache.SwapReq_accesses::.cpu1.data         8886                       # number of SwapReq accesses(hits+misses)
system.cpu1.dcache.SwapReq_accesses::total         8886                       # number of SwapReq accesses(hits+misses)
system.cpu1.dcache.SwapReq_miss_rate::.cpu1.data     0.802611                       # miss rate for SwapReq accesses
system.cpu1.dcache.SwapReq_miss_rate::total     0.802611                       # miss rate for SwapReq accesses
system.cpu1.dcache.SwapReq_avg_miss_latency::.cpu1.data 17207.164891                       # average SwapReq miss latency
system.cpu1.dcache.SwapReq_avg_miss_latency::total 17207.164891                       # average SwapReq miss latency
system.cpu1.dcache.SwapReq_mshr_hits::.cpu1.data            1                       # number of SwapReq MSHR hits
system.cpu1.dcache.SwapReq_mshr_hits::total            1                       # number of SwapReq MSHR hits
system.cpu1.dcache.SwapReq_mshr_misses::.cpu1.data         7131                       # number of SwapReq MSHR misses
system.cpu1.dcache.SwapReq_mshr_misses::total         7131                       # number of SwapReq MSHR misses
system.cpu1.dcache.SwapReq_mshr_miss_latency::.cpu1.data    115589500                       # number of SwapReq MSHR miss cycles
system.cpu1.dcache.SwapReq_mshr_miss_latency::total    115589500                       # number of SwapReq MSHR miss cycles
system.cpu1.dcache.SwapReq_mshr_miss_rate::.cpu1.data     0.802498                       # mshr miss rate for SwapReq accesses
system.cpu1.dcache.SwapReq_mshr_miss_rate::total     0.802498                       # mshr miss rate for SwapReq accesses
system.cpu1.dcache.SwapReq_avg_mshr_miss_latency::.cpu1.data 16209.437667                       # average SwapReq mshr miss latency
system.cpu1.dcache.SwapReq_avg_mshr_miss_latency::total 16209.437667                       # average SwapReq mshr miss latency
system.cpu1.dcache.tags.pwrStateResidencyTicks::UNDEFINED 203444510500                       # Cumulative time (in ticks) in various power states
system.cpu1.dcache.tags.tagsinuse           31.599616                       # Cycle average of tags in use
system.cpu1.dcache.tags.total_refs           50179833                       # Total number of references to valid blocks.
system.cpu1.dcache.tags.sampled_refs          5355653                       # Sample count of references to valid blocks.
system.cpu1.dcache.tags.avg_refs             9.369508                       # Average number of references to valid blocks.
system.cpu1.dcache.tags.warmup_cycle                0                       # Cycle when the warmup percentage was hit.
system.cpu1.dcache.tags.occ_blocks::.cpu1.data    31.599616                       # Average occupied blocks per requestor
system.cpu1.dcache.tags.occ_percent::.cpu1.data     0.987488                       # Average percentage of cache occupancy
system.cpu1.dcache.tags.occ_percent::total     0.987488                       # Average percentage of cache occupancy
system.cpu1.dcache.tags.occ_task_id_blocks::1024           28                       # Occupied blocks per task id
system.cpu1.dcache.tags.age_task_id_blocks_1024::1           28                       # Occupied blocks per task id
system.cpu1.dcache.tags.occ_task_id_percent::1024     0.875000                       # Percentage of cache occupancy per task id
system.cpu1.dcache.tags.tag_accesses        128749177                       # Number of tag accesses
system.cpu1.dcache.tags.data_accesses       128749177                       # Number of data accesses
system.cpu_clk_domain.clock                       500                       # Clock period in ticks
system.tol2bus.pwrStateResidencyTicks::UNDEFINED 203444510500                       # Cumulative time (in ticks) in various power states
system.tol2bus.trans_dist::ReadResp          10685536                       # Transaction distribution
system.tol2bus.trans_dist::WritebackDirty      2060274                       # Transaction distribution
system.tol2bus.trans_dist::WritebackClean      9724814                       # Transaction distribution
system.tol2bus.trans_dist::CleanEvict        20859821                       # Transaction distribution
system.tol2bus.trans_dist::HardPFReq         14378223                       # Transaction distribution
system.tol2bus.trans_dist::HardPFResp               7                       # Transaction distribution
system.tol2bus.trans_dist::UpgradeReq          115528                       # Transaction distribution
system.tol2bus.trans_dist::SCUpgradeReq          4008                       # Transaction distribution
system.tol2bus.trans_dist::UpgradeResp         119536                       # Transaction distribution
system.tol2bus.trans_dist::SCUpgradeFailReq           36                       # Transaction distribution
system.tol2bus.trans_dist::UpgradeFailResp           36                       # Transaction distribution
system.tol2bus.trans_dist::ReadExReq           414858                       # Transaction distribution
system.tol2bus.trans_dist::ReadExResp          414858                       # Transaction distribution
system.tol2bus.trans_dist::ReadCleanReq        144743                       # Transaction distribution
system.tol2bus.trans_dist::ReadSharedReq     10540793                       # Transaction distribution
system.tol2bus.trans_dist::InvalidateReq         3742                       # Transaction distribution
system.tol2bus.trans_dist::InvalidateResp         3742                       # Transaction distribution
system.tol2bus.pkt_count_system.cpu0.icache.mem_side::system.l2.cpu_side       360939                       # Packet count per connected master and slave (bytes)
system.tol2bus.pkt_count_system.cpu0.dcache.mem_side::system.l2.cpu_side     16718670                       # Packet count per connected master and slave (bytes)
system.tol2bus.pkt_count_system.cpu1.icache.mem_side::system.l2.cpu_side        73236                       # Packet count per connected master and slave (bytes)
system.tol2bus.pkt_count_system.cpu1.dcache.mem_side::system.l2.cpu_side     15973676                       # Packet count per connected master and slave (bytes)
system.tol2bus.pkt_count::total              33126521                       # Packet count per connected master and slave (bytes)
system.tol2bus.pkt_size_system.cpu0.icache.mem_side::system.l2.cpu_side     15398912                       # Cumulative packet size per connected master and slave (bytes)
system.tol2bus.pkt_size_system.cpu0.dcache.mem_side::system.l2.cpu_side    706418432                       # Cumulative packet size per connected master and slave (bytes)
system.tol2bus.pkt_size_system.cpu1.icache.mem_side::system.l2.cpu_side      3124736                       # Cumulative packet size per connected master and slave (bytes)
system.tol2bus.pkt_size_system.cpu1.dcache.mem_side::system.l2.cpu_side    674864960                       # Cumulative packet size per connected master and slave (bytes)
system.tol2bus.pkt_size::total             1399807040                       # Cumulative packet size per connected master and slave (bytes)
system.tol2bus.snoops                        36344041                       # Total snoops (count)
system.tol2bus.snoopTraffic                  64867008                       # Total snoop traffic (bytes)
system.tol2bus.snoop_fanout::samples         47316726                       # Request fanout histogram
system.tol2bus.snoop_fanout::mean            0.210026                       # Request fanout histogram
system.tol2bus.snoop_fanout::stdev           0.435001                       # Request fanout histogram
system.tol2bus.snoop_fanout::underflows             0      0.00%      0.00% # Request fanout histogram
system.tol2bus.snoop_fanout::0               37930282     80.16%     80.16% # Request fanout histogram
system.tol2bus.snoop_fanout::1                8835391     18.67%     98.84% # Request fanout histogram
system.tol2bus.snoop_fanout::2                 550826      1.16%    100.00% # Request fanout histogram
system.tol2bus.snoop_fanout::3                    227      0.00%    100.00% # Request fanout histogram
system.tol2bus.snoop_fanout::4                      0      0.00%    100.00% # Request fanout histogram
system.tol2bus.snoop_fanout::5                      0      0.00%    100.00% # Request fanout histogram
system.tol2bus.snoop_fanout::6                      0      0.00%    100.00% # Request fanout histogram
system.tol2bus.snoop_fanout::7                      0      0.00%    100.00% # Request fanout histogram
system.tol2bus.snoop_fanout::8                      0      0.00%    100.00% # Request fanout histogram
system.tol2bus.snoop_fanout::overflows              0      0.00%    100.00% # Request fanout histogram
system.tol2bus.snoop_fanout::min_value              0                       # Request fanout histogram
system.tol2bus.snoop_fanout::max_value              3                       # Request fanout histogram
system.tol2bus.snoop_fanout::total           47316726                       # Request fanout histogram
system.tol2bus.reqLayer0.occupancy        22041458868                       # Layer occupancy (ticks)
system.tol2bus.reqLayer0.utilization             10.8                       # Layer utilization (%)
system.tol2bus.respLayer1.occupancy        8457239218                       # Layer occupancy (ticks)
system.tol2bus.respLayer1.utilization             4.2                       # Layer utilization (%)
system.tol2bus.respLayer0.occupancy         181132226                       # Layer occupancy (ticks)
system.tol2bus.respLayer0.utilization             0.1                       # Layer utilization (%)
system.tol2bus.respLayer3.occupancy        8088310372                       # Layer occupancy (ticks)
system.tol2bus.respLayer3.utilization             4.0                       # Layer utilization (%)
system.tol2bus.respLayer2.occupancy          36909915                       # Layer occupancy (ticks)
system.tol2bus.respLayer2.utilization             0.0                       # Layer utilization (%)
system.tol2bus.snoopLayer0.occupancy            10500                       # Layer occupancy (ticks)
system.tol2bus.snoopLayer0.utilization            0.0                       # Layer utilization (%)

---------- End Simulation Statistics   ----------
