
---------- Begin Simulation Statistics ----------
final_tick                               2774070847500                       # Number of ticks from beginning of simulation (restored from checkpoints and never reset)
host_inst_rate                                  56774                       # Simulator instruction rate (inst/s)
host_mem_usage                                 703140                       # Number of bytes of host memory used
host_op_rate                                    56940                       # Simulator op (including micro ops) rate (op/s)
host_seconds                                 45785.00                       # Real time elapsed on the host
host_tick_rate                               60589080                       # Simulator tick rate (ticks/s)
sim_freq                                 1000000000000                       # Frequency of simulated ticks
sim_insts                                  2599405331                       # Number of instructions simulated
sim_ops                                    2607014266                       # Number of ops (including micro ops) simulated
sim_seconds                                  2.774071                       # Number of seconds simulated
sim_ticks                                2774070847500                       # Number of ticks simulated
system.cpu0.branchPred.BTBCorrect                   0                       # Number of correct BTB predictions (this stat may not work properly.
system.cpu0.branchPred.BTBHitPct            85.717073                       # BTB Hit Percentage
system.cpu0.branchPred.BTBHits              318282216                       # Number of BTB hits
system.cpu0.branchPred.BTBLookups           371317179                       # Number of BTB lookups
system.cpu0.branchPred.RASInCorrect                 0                       # Number of incorrect RAS predictions.
system.cpu0.branchPred.condIncorrect         24876966                       # Number of conditional branches incorrect
system.cpu0.branchPred.condPredicted        496925390                       # Number of conditional branches predicted
system.cpu0.branchPred.indirectHits          48137647                       # Number of indirect target hits.
system.cpu0.branchPred.indirectLookups       48492434                       # Number of indirect predictor lookups.
system.cpu0.branchPred.indirectMisses          354787                       # Number of indirect misses.
system.cpu0.branchPred.lookups              632811040                       # Number of BP lookups
system.cpu0.branchPred.usedRAS                      0                       # Number of times the RAS was used to get a target.
system.cpu0.branchPredindirectMispredicted      4032338                       # Number of mispredicted indirect branches.
system.cpu0.commit.amos                       3801871                       # Number of atomic instructions committed
system.cpu0.commit.branchMispredicts         16044961                       # The number of times a branch was mispredicted
system.cpu0.commit.branches                 581787400                       # Number of branches committed
system.cpu0.commit.bw_lim_events             96693072                       # number cycles where commit BW limit reached
system.cpu0.commit.commitNonSpecStalls       11419518                       # The number of times commit has been forced to stall to communicate backwards
system.cpu0.commit.commitSquashedInsts      216688556                       # The number of squashed insts skipped by commit
system.cpu0.commit.committedInsts          2379457194                       # Number of instructions committed
system.cpu0.commit.committedOps            2383264359                       # Number of ops (including micro ops) committed
system.cpu0.commit.committed_per_cycle::samples   4196774193                       # Number of insts commited each cycle
system.cpu0.commit.committed_per_cycle::mean     0.567880                       # Number of insts commited each cycle
system.cpu0.commit.committed_per_cycle::stdev     1.446335                       # Number of insts commited each cycle
system.cpu0.commit.committed_per_cycle::underflows            0      0.00%      0.00% # Number of insts commited each cycle
system.cpu0.commit.committed_per_cycle::0   3158415650     75.26%     75.26% # Number of insts commited each cycle
system.cpu0.commit.committed_per_cycle::1    593727859     14.15%     89.41% # Number of insts commited each cycle
system.cpu0.commit.committed_per_cycle::2    146202406      3.48%     92.89% # Number of insts commited each cycle
system.cpu0.commit.committed_per_cycle::3    125207155      2.98%     95.87% # Number of insts commited each cycle
system.cpu0.commit.committed_per_cycle::4     49500834      1.18%     97.05% # Number of insts commited each cycle
system.cpu0.commit.committed_per_cycle::5     16221022      0.39%     97.44% # Number of insts commited each cycle
system.cpu0.commit.committed_per_cycle::6      6786164      0.16%     97.60% # Number of insts commited each cycle
system.cpu0.commit.committed_per_cycle::7      4020031      0.10%     97.70% # Number of insts commited each cycle
system.cpu0.commit.committed_per_cycle::8     96693072      2.30%    100.00% # Number of insts commited each cycle
system.cpu0.commit.committed_per_cycle::overflows            0      0.00%    100.00% # Number of insts commited each cycle
system.cpu0.commit.committed_per_cycle::min_value            0                       # Number of insts commited each cycle
system.cpu0.commit.committed_per_cycle::max_value            8                       # Number of insts commited each cycle
system.cpu0.commit.committed_per_cycle::total   4196774193                       # Number of insts commited each cycle
system.cpu0.commit.fp_insts                        50                       # Number of committed floating point instructions.
system.cpu0.commit.function_calls            48959701                       # Number of function calls committed.
system.cpu0.commit.int_insts               2306394359                       # Number of committed integer instructions.
system.cpu0.commit.loads                    725979913                       # Number of loads committed
system.cpu0.commit.membars                    7608901                       # Number of memory barriers committed
system.cpu0.commit.op_class_0::No_OpClass      7608907      0.32%      0.32% # Class of committed instruction
system.cpu0.commit.op_class_0::IntAlu      1330093771     55.81%     56.13% # Class of committed instruction
system.cpu0.commit.op_class_0::IntMult       19369808      0.81%     56.94% # Class of committed instruction
system.cpu0.commit.op_class_0::IntDiv         5898572      0.25%     57.19% # Class of committed instruction
system.cpu0.commit.op_class_0::FloatAdd             0      0.00%     57.19% # Class of committed instruction
system.cpu0.commit.op_class_0::FloatCmp             4      0.00%     57.19% # Class of committed instruction
system.cpu0.commit.op_class_0::FloatCvt            12      0.00%     57.19% # Class of committed instruction
system.cpu0.commit.op_class_0::FloatMult            0      0.00%     57.19% # Class of committed instruction
system.cpu0.commit.op_class_0::FloatMultAcc            0      0.00%     57.19% # Class of committed instruction
system.cpu0.commit.op_class_0::FloatDiv             2      0.00%     57.19% # Class of committed instruction
system.cpu0.commit.op_class_0::FloatMisc            4      0.00%     57.19% # Class of committed instruction
system.cpu0.commit.op_class_0::FloatSqrt            0      0.00%     57.19% # Class of committed instruction
system.cpu0.commit.op_class_0::SimdAdd              0      0.00%     57.19% # Class of committed instruction
system.cpu0.commit.op_class_0::SimdAddAcc            0      0.00%     57.19% # Class of committed instruction
system.cpu0.commit.op_class_0::SimdAlu              0      0.00%     57.19% # Class of committed instruction
system.cpu0.commit.op_class_0::SimdCmp              0      0.00%     57.19% # Class of committed instruction
system.cpu0.commit.op_class_0::SimdCvt              0      0.00%     57.19% # Class of committed instruction
system.cpu0.commit.op_class_0::SimdMisc             0      0.00%     57.19% # Class of committed instruction
system.cpu0.commit.op_class_0::SimdMult             0      0.00%     57.19% # Class of committed instruction
system.cpu0.commit.op_class_0::SimdMultAcc            0      0.00%     57.19% # Class of committed instruction
system.cpu0.commit.op_class_0::SimdShift            0      0.00%     57.19% # Class of committed instruction
system.cpu0.commit.op_class_0::SimdShiftAcc            0      0.00%     57.19% # Class of committed instruction
system.cpu0.commit.op_class_0::SimdDiv              0      0.00%     57.19% # Class of committed instruction
system.cpu0.commit.op_class_0::SimdSqrt             0      0.00%     57.19% # Class of committed instruction
system.cpu0.commit.op_class_0::SimdFloatAdd            0      0.00%     57.19% # Class of committed instruction
system.cpu0.commit.op_class_0::SimdFloatAlu            0      0.00%     57.19% # Class of committed instruction
system.cpu0.commit.op_class_0::SimdFloatCmp            0      0.00%     57.19% # Class of committed instruction
system.cpu0.commit.op_class_0::SimdFloatCvt            0      0.00%     57.19% # Class of committed instruction
system.cpu0.commit.op_class_0::SimdFloatDiv            0      0.00%     57.19% # Class of committed instruction
system.cpu0.commit.op_class_0::SimdFloatMisc            0      0.00%     57.19% # Class of committed instruction
system.cpu0.commit.op_class_0::SimdFloatMult            0      0.00%     57.19% # Class of committed instruction
system.cpu0.commit.op_class_0::SimdFloatMultAcc            0      0.00%     57.19% # Class of committed instruction
system.cpu0.commit.op_class_0::SimdFloatSqrt            0      0.00%     57.19% # Class of committed instruction
system.cpu0.commit.op_class_0::SimdReduceAdd            0      0.00%     57.19% # Class of committed instruction
system.cpu0.commit.op_class_0::SimdReduceAlu            0      0.00%     57.19% # Class of committed instruction
system.cpu0.commit.op_class_0::SimdReduceCmp            0      0.00%     57.19% # Class of committed instruction
system.cpu0.commit.op_class_0::SimdFloatReduceAdd            0      0.00%     57.19% # Class of committed instruction
system.cpu0.commit.op_class_0::SimdFloatReduceCmp            0      0.00%     57.19% # Class of committed instruction
system.cpu0.commit.op_class_0::SimdAes              0      0.00%     57.19% # Class of committed instruction
system.cpu0.commit.op_class_0::SimdAesMix            0      0.00%     57.19% # Class of committed instruction
system.cpu0.commit.op_class_0::SimdSha1Hash            0      0.00%     57.19% # Class of committed instruction
system.cpu0.commit.op_class_0::SimdSha1Hash2            0      0.00%     57.19% # Class of committed instruction
system.cpu0.commit.op_class_0::SimdSha256Hash            0      0.00%     57.19% # Class of committed instruction
system.cpu0.commit.op_class_0::SimdSha256Hash2            0      0.00%     57.19% # Class of committed instruction
system.cpu0.commit.op_class_0::SimdShaSigma2            0      0.00%     57.19% # Class of committed instruction
system.cpu0.commit.op_class_0::SimdShaSigma3            0      0.00%     57.19% # Class of committed instruction
system.cpu0.commit.op_class_0::SimdPredAlu            0      0.00%     57.19% # Class of committed instruction
system.cpu0.commit.op_class_0::MemRead      729781776     30.62%     87.81% # Class of committed instruction
system.cpu0.commit.op_class_0::MemWrite     290511475     12.19%    100.00% # Class of committed instruction
system.cpu0.commit.op_class_0::FloatMemRead            8      0.00%    100.00% # Class of committed instruction
system.cpu0.commit.op_class_0::FloatMemWrite           20      0.00%    100.00% # Class of committed instruction
system.cpu0.commit.op_class_0::IprAccess            0      0.00%    100.00% # Class of committed instruction
system.cpu0.commit.op_class_0::InstPrefetch            0      0.00%    100.00% # Class of committed instruction
system.cpu0.commit.op_class_0::total       2383264359                       # Class of committed instruction
system.cpu0.commit.refs                    1020293279                       # Number of memory references committed
system.cpu0.commit.swp_count                        0                       # Number of s/w prefetches committed
system.cpu0.commit.vec_insts                        0                       # Number of committed Vector instructions.
system.cpu0.committedInsts                 2379457194                       # Number of Instructions Simulated
system.cpu0.committedOps                   2383264359                       # Number of Ops (including micro ops) Simulated
system.cpu0.cpi                              2.328589                       # CPI: Cycles Per Instruction
system.cpu0.cpi_total                        2.328589                       # CPI: Total CPI of All Threads
system.cpu0.decode.BlockedCycles            899938131                       # Number of cycles decode is blocked
system.cpu0.decode.BranchMispred              8842118                       # Number of times decode detected a branch misprediction
system.cpu0.decode.BranchResolved           314104456                       # Number of times decode resolved a branch
system.cpu0.decode.DecodedInsts            2630105264                       # Number of instructions handled by decode
system.cpu0.decode.IdleCycles              1491040659                       # Number of cycles decode is idle
system.cpu0.decode.RunCycles               1806877272                       # Number of cycles decode is running
system.cpu0.decode.SquashCycles              16071897                       # Number of cycles decode is squashing
system.cpu0.decode.SquashedInsts             24610527                       # Number of squashed instructions handled by decode
system.cpu0.decode.UnblockCycles             21419518                       # Number of cycles decode is unblocking
system.cpu0.dtb.accesses                            0                       # DTB accesses
system.cpu0.dtb.hits                                0                       # DTB hits
system.cpu0.dtb.misses                              0                       # DTB misses
system.cpu0.dtb.read_accesses                       0                       # DTB read accesses
system.cpu0.dtb.read_hits                           0                       # DTB read hits
system.cpu0.dtb.read_misses                         0                       # DTB read misses
system.cpu0.dtb.write_accesses                      0                       # DTB write accesses
system.cpu0.dtb.write_hits                          0                       # DTB write hits
system.cpu0.dtb.write_misses                        0                       # DTB write misses
system.cpu0.fetch.Branches                  632811040                       # Number of branches that fetch encountered
system.cpu0.fetch.CacheLines                472463481                       # Number of cache lines fetched
system.cpu0.fetch.Cycles                   2694746966                       # Number of cycles fetch has run and was not squashing or blocked
system.cpu0.fetch.IcacheSquashes             11536086                       # Number of outstanding Icache misses that were squashed
system.cpu0.fetch.IcacheWaitRetryStallCycles          140                       # Number of stall cycles due to full MSHR
system.cpu0.fetch.Insts                    2673615103                       # Number of instructions fetch has processed
system.cpu0.fetch.MiscStallCycles                 328                       # Number of cycles fetch has spent waiting on interrupts, or bad addresses, or out of MSHRs
system.cpu0.fetch.PendingTrapStallCycles         1188                       # Number of stall cycles due to pending traps
system.cpu0.fetch.SquashCycles               49808136                       # Number of cycles fetch has spent squashing
system.cpu0.fetch.branchRate                 0.114210                       # Number of branch fetches per cycle
system.cpu0.fetch.icacheStallCycles        1515694787                       # Number of cycles fetch is stalled on an Icache miss
system.cpu0.fetch.predictedBranches         366419863                       # Number of branches that fetch has predicted taken
system.cpu0.fetch.rate                       0.482534                       # Number of inst fetches per cycle
system.cpu0.fetch.rateDist::samples        4235347477                       # Number of instructions fetched each cycle (Total)
system.cpu0.fetch.rateDist::mean             0.632161                       # Number of instructions fetched each cycle (Total)
system.cpu0.fetch.rateDist::stdev            0.874671                       # Number of instructions fetched each cycle (Total)
system.cpu0.fetch.rateDist::underflows              0      0.00%      0.00% # Number of instructions fetched each cycle (Total)
system.cpu0.fetch.rateDist::0              2303726256     54.39%     54.39% # Number of instructions fetched each cycle (Total)
system.cpu0.fetch.rateDist::1              1444046385     34.10%     88.49% # Number of instructions fetched each cycle (Total)
system.cpu0.fetch.rateDist::2               306754653      7.24%     95.73% # Number of instructions fetched each cycle (Total)
system.cpu0.fetch.rateDist::3               136370113      3.22%     98.95% # Number of instructions fetched each cycle (Total)
system.cpu0.fetch.rateDist::4                20971344      0.50%     99.45% # Number of instructions fetched each cycle (Total)
system.cpu0.fetch.rateDist::5                17821294      0.42%     99.87% # Number of instructions fetched each cycle (Total)
system.cpu0.fetch.rateDist::6                 1842297      0.04%     99.91% # Number of instructions fetched each cycle (Total)
system.cpu0.fetch.rateDist::7                 3809664      0.09%    100.00% # Number of instructions fetched each cycle (Total)
system.cpu0.fetch.rateDist::8                    5471      0.00%    100.00% # Number of instructions fetched each cycle (Total)
system.cpu0.fetch.rateDist::overflows               0      0.00%    100.00% # Number of instructions fetched each cycle (Total)
system.cpu0.fetch.rateDist::min_value               0                       # Number of instructions fetched each cycle (Total)
system.cpu0.fetch.rateDist::max_value               8                       # Number of instructions fetched each cycle (Total)
system.cpu0.fetch.rateDist::total          4235347477                       # Number of instructions fetched each cycle (Total)
system.cpu0.fp_regfile_reads                      119                       # number of floating regfile reads
system.cpu0.fp_regfile_writes                      48                       # number of floating regfile writes
system.cpu0.idleCycles                     1305431064                       # Total number of cycles that the CPU has spent unscheduled due to idling
system.cpu0.iew.branchMispredicts            16260821                       # Number of branch mispredicts detected at execute
system.cpu0.iew.exec_branches               606409564                       # Number of branches executed
system.cpu0.iew.exec_nop                            0                       # number of nop insts executed
system.cpu0.iew.exec_rate                    0.463908                       # Inst execution rate
system.cpu0.iew.exec_refs                  1141021769                       # number of memory reference insts executed
system.cpu0.iew.exec_stores                 327984655                       # Number of stores executed
system.cpu0.iew.exec_swp                            0                       # number of swp insts executed
system.cpu0.iew.iewBlockCycles              651948185                       # Number of cycles IEW is blocking
system.cpu0.iew.iewDispLoadInsts            812085610                       # Number of dispatched load instructions
system.cpu0.iew.iewDispNonSpecInsts           3811005                       # Number of dispatched non-speculative instructions
system.cpu0.iew.iewDispSquashedInsts          6612394                       # Number of squashed instructions skipped by dispatch
system.cpu0.iew.iewDispStoreInsts           332511940                       # Number of dispatched store instructions
system.cpu0.iew.iewDispatchedInsts         2599916478                       # Number of instructions dispatched to IQ
system.cpu0.iew.iewExecLoadInsts            813037114                       # Number of load instructions executed
system.cpu0.iew.iewExecSquashedInsts         14315764                       # Number of squashed instructions skipped in execute
system.cpu0.iew.iewExecutedInsts           2570413356                       # Number of executed instructions
system.cpu0.iew.iewIQFullEvents               2958778                       # Number of times the IQ has become full, causing a stall
system.cpu0.iew.iewIdleCycles                       0                       # Number of cycles IEW is idle
system.cpu0.iew.iewLSQFullEvents             34581167                       # Number of times the LSQ has become full, causing a stall
system.cpu0.iew.iewSquashCycles              16071897                       # Number of cycles IEW is squashing
system.cpu0.iew.iewUnblockCycles             42582163                       # Number of cycles IEW is unblocking
system.cpu0.iew.lsq.thread0.blockedLoads            0                       # Number of blocked loads due to partial load-store forwarding
system.cpu0.iew.lsq.thread0.cacheBlocked      1169873                       # Number of times an access to memory failed due to the cache being blocked
system.cpu0.iew.lsq.thread0.forwLoads        70774400                       # Number of loads that had data forwarded from stores
system.cpu0.iew.lsq.thread0.ignoredResponses        19215                       # Number of memory responses ignored because the instruction is squashed
system.cpu0.iew.lsq.thread0.invAddrLoads            0                       # Number of loads ignored due to an invalid address
system.cpu0.iew.lsq.thread0.invAddrSwpfs            0                       # Number of software prefetches ignored due to an invalid address
system.cpu0.iew.lsq.thread0.memOrderViolation        28884                       # Number of memory ordering violations
system.cpu0.iew.lsq.thread0.rescheduledLoads     15273851                       # Number of loads that were rescheduled
system.cpu0.iew.lsq.thread0.squashedLoads     86105697                       # Number of loads squashed
system.cpu0.iew.lsq.thread0.squashedStores     38198568                       # Number of stores squashed
system.cpu0.iew.memOrderViolationEvents         28884                       # Number of memory order violations
system.cpu0.iew.predictedNotTakenIncorrect      1539588                       # Number of branches that were predicted not taken incorrectly
system.cpu0.iew.predictedTakenIncorrect      14721233                       # Number of branches that were predicted taken incorrectly
system.cpu0.iew.wb_consumers               1138996381                       # num instructions consuming a value
system.cpu0.iew.wb_count                   2545129724                       # cumulative count of insts written-back
system.cpu0.iew.wb_fanout                    0.832219                       # average fanout of values written-back
system.cpu0.iew.wb_producers                947893978                       # num instructions producing a value
system.cpu0.iew.wb_rate                      0.459345                       # insts written-back per cycle
system.cpu0.iew.wb_sent                    2545290734                       # cumulative count of insts sent to commit
system.cpu0.int_regfile_reads              3168724600                       # number of integer regfile reads
system.cpu0.int_regfile_writes             1631207837                       # number of integer regfile writes
system.cpu0.ipc                              0.429445                       # IPC: Instructions Per Cycle
system.cpu0.ipc_total                        0.429445                       # IPC: Total IPC of All Threads
system.cpu0.iq.FU_type_0::No_OpClass          7611984      0.29%      0.29% # Type of FU issued
system.cpu0.iq.FU_type_0::IntAlu           1408394102     54.49%     54.78% # Type of FU issued
system.cpu0.iq.FU_type_0::IntMult            19389801      0.75%     55.53% # Type of FU issued
system.cpu0.iq.FU_type_0::IntDiv              5900434      0.23%     55.76% # Type of FU issued
system.cpu0.iq.FU_type_0::FloatAdd                  0      0.00%     55.76% # Type of FU issued
system.cpu0.iq.FU_type_0::FloatCmp                  4      0.00%     55.76% # Type of FU issued
system.cpu0.iq.FU_type_0::FloatCvt                 12      0.00%     55.76% # Type of FU issued
system.cpu0.iq.FU_type_0::FloatMult                 0      0.00%     55.76% # Type of FU issued
system.cpu0.iq.FU_type_0::FloatMultAcc             26      0.00%     55.76% # Type of FU issued
system.cpu0.iq.FU_type_0::FloatDiv                  2      0.00%     55.76% # Type of FU issued
system.cpu0.iq.FU_type_0::FloatMisc                 4      0.00%     55.76% # Type of FU issued
system.cpu0.iq.FU_type_0::FloatSqrt                 0      0.00%     55.76% # Type of FU issued
system.cpu0.iq.FU_type_0::SimdAdd                   0      0.00%     55.76% # Type of FU issued
system.cpu0.iq.FU_type_0::SimdAddAcc                0      0.00%     55.76% # Type of FU issued
system.cpu0.iq.FU_type_0::SimdAlu                   0      0.00%     55.76% # Type of FU issued
system.cpu0.iq.FU_type_0::SimdCmp                   0      0.00%     55.76% # Type of FU issued
system.cpu0.iq.FU_type_0::SimdCvt                   0      0.00%     55.76% # Type of FU issued
system.cpu0.iq.FU_type_0::SimdMisc                  0      0.00%     55.76% # Type of FU issued
system.cpu0.iq.FU_type_0::SimdMult                  0      0.00%     55.76% # Type of FU issued
system.cpu0.iq.FU_type_0::SimdMultAcc               0      0.00%     55.76% # Type of FU issued
system.cpu0.iq.FU_type_0::SimdShift                 0      0.00%     55.76% # Type of FU issued
system.cpu0.iq.FU_type_0::SimdShiftAcc              0      0.00%     55.76% # Type of FU issued
system.cpu0.iq.FU_type_0::SimdDiv                   0      0.00%     55.76% # Type of FU issued
system.cpu0.iq.FU_type_0::SimdSqrt                  0      0.00%     55.76% # Type of FU issued
system.cpu0.iq.FU_type_0::SimdFloatAdd              0      0.00%     55.76% # Type of FU issued
system.cpu0.iq.FU_type_0::SimdFloatAlu              0      0.00%     55.76% # Type of FU issued
system.cpu0.iq.FU_type_0::SimdFloatCmp              0      0.00%     55.76% # Type of FU issued
system.cpu0.iq.FU_type_0::SimdFloatCvt              0      0.00%     55.76% # Type of FU issued
system.cpu0.iq.FU_type_0::SimdFloatDiv              0      0.00%     55.76% # Type of FU issued
system.cpu0.iq.FU_type_0::SimdFloatMisc             0      0.00%     55.76% # Type of FU issued
system.cpu0.iq.FU_type_0::SimdFloatMult             0      0.00%     55.76% # Type of FU issued
system.cpu0.iq.FU_type_0::SimdFloatMultAcc            0      0.00%     55.76% # Type of FU issued
system.cpu0.iq.FU_type_0::SimdFloatSqrt             0      0.00%     55.76% # Type of FU issued
system.cpu0.iq.FU_type_0::SimdReduceAdd             0      0.00%     55.76% # Type of FU issued
system.cpu0.iq.FU_type_0::SimdReduceAlu             0      0.00%     55.76% # Type of FU issued
system.cpu0.iq.FU_type_0::SimdReduceCmp             0      0.00%     55.76% # Type of FU issued
system.cpu0.iq.FU_type_0::SimdFloatReduceAdd            0      0.00%     55.76% # Type of FU issued
system.cpu0.iq.FU_type_0::SimdFloatReduceCmp            0      0.00%     55.76% # Type of FU issued
system.cpu0.iq.FU_type_0::SimdAes                   0      0.00%     55.76% # Type of FU issued
system.cpu0.iq.FU_type_0::SimdAesMix                0      0.00%     55.76% # Type of FU issued
system.cpu0.iq.FU_type_0::SimdSha1Hash              0      0.00%     55.76% # Type of FU issued
system.cpu0.iq.FU_type_0::SimdSha1Hash2             0      0.00%     55.76% # Type of FU issued
system.cpu0.iq.FU_type_0::SimdSha256Hash            0      0.00%     55.76% # Type of FU issued
system.cpu0.iq.FU_type_0::SimdSha256Hash2            0      0.00%     55.76% # Type of FU issued
system.cpu0.iq.FU_type_0::SimdShaSigma2             0      0.00%     55.76% # Type of FU issued
system.cpu0.iq.FU_type_0::SimdShaSigma3             0      0.00%     55.76% # Type of FU issued
system.cpu0.iq.FU_type_0::SimdPredAlu               0      0.00%     55.76% # Type of FU issued
system.cpu0.iq.FU_type_0::MemRead           818607955     31.67%     87.43% # Type of FU issued
system.cpu0.iq.FU_type_0::MemWrite          324824769     12.57%    100.00% # Type of FU issued
system.cpu0.iq.FU_type_0::FloatMemRead              9      0.00%    100.00% # Type of FU issued
system.cpu0.iq.FU_type_0::FloatMemWrite            20      0.00%    100.00% # Type of FU issued
system.cpu0.iq.FU_type_0::IprAccess                 0      0.00%    100.00% # Type of FU issued
system.cpu0.iq.FU_type_0::InstPrefetch              0      0.00%    100.00% # Type of FU issued
system.cpu0.iq.FU_type_0::total            2584729122                       # Type of FU issued
system.cpu0.iq.fp_alu_accesses                     81                       # Number of floating point alu accesses
system.cpu0.iq.fp_inst_queue_reads                158                       # Number of floating instruction queue reads
system.cpu0.iq.fp_inst_queue_wakeup_accesses           76                       # Number of floating instruction queue wakeup accesses
system.cpu0.iq.fp_inst_queue_writes               104                       # Number of floating instruction queue writes
system.cpu0.iq.fu_busy_cnt                   12541942                       # FU busy when requested
system.cpu0.iq.fu_busy_rate                  0.004852                       # FU busy rate (busy events/executed inst)
system.cpu0.iq.fu_full::No_OpClass                  0      0.00%      0.00% # attempts to use FU when none available
system.cpu0.iq.fu_full::IntAlu                2610932     20.82%     20.82% # attempts to use FU when none available
system.cpu0.iq.fu_full::IntMult                  6323      0.05%     20.87% # attempts to use FU when none available
system.cpu0.iq.fu_full::IntDiv                1721305     13.72%     34.59% # attempts to use FU when none available
system.cpu0.iq.fu_full::FloatAdd                    0      0.00%     34.59% # attempts to use FU when none available
system.cpu0.iq.fu_full::FloatCmp                    0      0.00%     34.59% # attempts to use FU when none available
system.cpu0.iq.fu_full::FloatCvt                    0      0.00%     34.59% # attempts to use FU when none available
system.cpu0.iq.fu_full::FloatMult                   0      0.00%     34.59% # attempts to use FU when none available
system.cpu0.iq.fu_full::FloatMultAcc                0      0.00%     34.59% # attempts to use FU when none available
system.cpu0.iq.fu_full::FloatDiv                    0      0.00%     34.59% # attempts to use FU when none available
system.cpu0.iq.fu_full::FloatMisc                   0      0.00%     34.59% # attempts to use FU when none available
system.cpu0.iq.fu_full::FloatSqrt                   0      0.00%     34.59% # attempts to use FU when none available
system.cpu0.iq.fu_full::SimdAdd                     0      0.00%     34.59% # attempts to use FU when none available
system.cpu0.iq.fu_full::SimdAddAcc                  0      0.00%     34.59% # attempts to use FU when none available
system.cpu0.iq.fu_full::SimdAlu                     0      0.00%     34.59% # attempts to use FU when none available
system.cpu0.iq.fu_full::SimdCmp                     0      0.00%     34.59% # attempts to use FU when none available
system.cpu0.iq.fu_full::SimdCvt                     0      0.00%     34.59% # attempts to use FU when none available
system.cpu0.iq.fu_full::SimdMisc                    0      0.00%     34.59% # attempts to use FU when none available
system.cpu0.iq.fu_full::SimdMult                    0      0.00%     34.59% # attempts to use FU when none available
system.cpu0.iq.fu_full::SimdMultAcc                 0      0.00%     34.59% # attempts to use FU when none available
system.cpu0.iq.fu_full::SimdShift                   0      0.00%     34.59% # attempts to use FU when none available
system.cpu0.iq.fu_full::SimdShiftAcc                0      0.00%     34.59% # attempts to use FU when none available
system.cpu0.iq.fu_full::SimdDiv                     0      0.00%     34.59% # attempts to use FU when none available
system.cpu0.iq.fu_full::SimdSqrt                    0      0.00%     34.59% # attempts to use FU when none available
system.cpu0.iq.fu_full::SimdFloatAdd                0      0.00%     34.59% # attempts to use FU when none available
system.cpu0.iq.fu_full::SimdFloatAlu                0      0.00%     34.59% # attempts to use FU when none available
system.cpu0.iq.fu_full::SimdFloatCmp                0      0.00%     34.59% # attempts to use FU when none available
system.cpu0.iq.fu_full::SimdFloatCvt                0      0.00%     34.59% # attempts to use FU when none available
system.cpu0.iq.fu_full::SimdFloatDiv                0      0.00%     34.59% # attempts to use FU when none available
system.cpu0.iq.fu_full::SimdFloatMisc               0      0.00%     34.59% # attempts to use FU when none available
system.cpu0.iq.fu_full::SimdFloatMult               0      0.00%     34.59% # attempts to use FU when none available
system.cpu0.iq.fu_full::SimdFloatMultAcc            0      0.00%     34.59% # attempts to use FU when none available
system.cpu0.iq.fu_full::SimdFloatSqrt               0      0.00%     34.59% # attempts to use FU when none available
system.cpu0.iq.fu_full::SimdReduceAdd               0      0.00%     34.59% # attempts to use FU when none available
system.cpu0.iq.fu_full::SimdReduceAlu               0      0.00%     34.59% # attempts to use FU when none available
system.cpu0.iq.fu_full::SimdReduceCmp               0      0.00%     34.59% # attempts to use FU when none available
system.cpu0.iq.fu_full::SimdFloatReduceAdd            0      0.00%     34.59% # attempts to use FU when none available
system.cpu0.iq.fu_full::SimdFloatReduceCmp            0      0.00%     34.59% # attempts to use FU when none available
system.cpu0.iq.fu_full::SimdAes                     0      0.00%     34.59% # attempts to use FU when none available
system.cpu0.iq.fu_full::SimdAesMix                  0      0.00%     34.59% # attempts to use FU when none available
system.cpu0.iq.fu_full::SimdSha1Hash                0      0.00%     34.59% # attempts to use FU when none available
system.cpu0.iq.fu_full::SimdSha1Hash2               0      0.00%     34.59% # attempts to use FU when none available
system.cpu0.iq.fu_full::SimdSha256Hash              0      0.00%     34.59% # attempts to use FU when none available
system.cpu0.iq.fu_full::SimdSha256Hash2             0      0.00%     34.59% # attempts to use FU when none available
system.cpu0.iq.fu_full::SimdShaSigma2               0      0.00%     34.59% # attempts to use FU when none available
system.cpu0.iq.fu_full::SimdShaSigma3               0      0.00%     34.59% # attempts to use FU when none available
system.cpu0.iq.fu_full::SimdPredAlu                 0      0.00%     34.59% # attempts to use FU when none available
system.cpu0.iq.fu_full::MemRead               7417976     59.15%     93.74% # attempts to use FU when none available
system.cpu0.iq.fu_full::MemWrite               785402      6.26%    100.00% # attempts to use FU when none available
system.cpu0.iq.fu_full::FloatMemRead                0      0.00%    100.00% # attempts to use FU when none available
system.cpu0.iq.fu_full::FloatMemWrite               4      0.00%    100.00% # attempts to use FU when none available
system.cpu0.iq.fu_full::IprAccess                   0      0.00%    100.00% # attempts to use FU when none available
system.cpu0.iq.fu_full::InstPrefetch                0      0.00%    100.00% # attempts to use FU when none available
system.cpu0.iq.int_alu_accesses            2589658999                       # Number of integer alu accesses
system.cpu0.iq.int_inst_queue_reads        9417993980                       # Number of integer instruction queue reads
system.cpu0.iq.int_inst_queue_wakeup_accesses   2545129648                       # Number of integer instruction queue wakeup accesses
system.cpu0.iq.int_inst_queue_writes       2816596287                       # Number of integer instruction queue writes
system.cpu0.iq.iqInstsAdded                2588495987                       # Number of instructions added to the IQ (excludes non-spec)
system.cpu0.iq.iqInstsIssued               2584729122                       # Number of instructions issued
system.cpu0.iq.iqNonSpecInstsAdded           11420491                       # Number of non-speculative instructions added to the IQ
system.cpu0.iq.iqSquashedInstsExamined      216652079                       # Number of squashed instructions iterated over during squash; mainly for profiling
system.cpu0.iq.iqSquashedInstsIssued           646477                       # Number of squashed instructions issued
system.cpu0.iq.iqSquashedNonSpecRemoved           973                       # Number of squashed non-spec instructions that were removed
system.cpu0.iq.iqSquashedOperandsExamined     53272696                       # Number of squashed operands that are examined and possibly removed from graph
system.cpu0.iq.issued_per_cycle::samples   4235347477                       # Number of insts issued each cycle
system.cpu0.iq.issued_per_cycle::mean        0.610276                       # Number of insts issued each cycle
system.cpu0.iq.issued_per_cycle::stdev       0.867096                       # Number of insts issued each cycle
system.cpu0.iq.issued_per_cycle::underflows            0      0.00%      0.00% # Number of insts issued each cycle
system.cpu0.iq.issued_per_cycle::0         2417438582     57.08%     57.08% # Number of insts issued each cycle
system.cpu0.iq.issued_per_cycle::1         1248534335     29.48%     86.56% # Number of insts issued each cycle
system.cpu0.iq.issued_per_cycle::2          449013225     10.60%     97.16% # Number of insts issued each cycle
system.cpu0.iq.issued_per_cycle::3           74502416      1.76%     98.92% # Number of insts issued each cycle
system.cpu0.iq.issued_per_cycle::4           27280681      0.64%     99.56% # Number of insts issued each cycle
system.cpu0.iq.issued_per_cycle::5            8713498      0.21%     99.77% # Number of insts issued each cycle
system.cpu0.iq.issued_per_cycle::6            7594590      0.18%     99.95% # Number of insts issued each cycle
system.cpu0.iq.issued_per_cycle::7            1757865      0.04%     99.99% # Number of insts issued each cycle
system.cpu0.iq.issued_per_cycle::8             512285      0.01%    100.00% # Number of insts issued each cycle
system.cpu0.iq.issued_per_cycle::overflows            0      0.00%    100.00% # Number of insts issued each cycle
system.cpu0.iq.issued_per_cycle::min_value            0                       # Number of insts issued each cycle
system.cpu0.iq.issued_per_cycle::max_value            8                       # Number of insts issued each cycle
system.cpu0.iq.issued_per_cycle::total     4235347477                       # Number of insts issued each cycle
system.cpu0.iq.rate                          0.466492                       # Inst issue rate
system.cpu0.iq.vec_alu_accesses                     0                       # Number of vector alu accesses
system.cpu0.iq.vec_inst_queue_reads                 0                       # Number of vector instruction queue reads
system.cpu0.iq.vec_inst_queue_wakeup_accesses            0                       # Number of vector instruction queue wakeup accesses
system.cpu0.iq.vec_inst_queue_writes                0                       # Number of vector instruction queue writes
system.cpu0.itb.accesses                            0                       # DTB accesses
system.cpu0.itb.hits                                0                       # DTB hits
system.cpu0.itb.misses                              0                       # DTB misses
system.cpu0.itb.read_accesses                       0                       # DTB read accesses
system.cpu0.itb.read_hits                           0                       # DTB read hits
system.cpu0.itb.read_misses                         0                       # DTB read misses
system.cpu0.itb.write_accesses                      0                       # DTB write accesses
system.cpu0.itb.write_hits                          0                       # DTB write hits
system.cpu0.itb.write_misses                        0                       # DTB write misses
system.cpu0.memDep0.conflictingLoads         53924080                       # Number of conflicting loads.
system.cpu0.memDep0.conflictingStores        18952253                       # Number of conflicting stores.
system.cpu0.memDep0.insertedLoads           812085610                       # Number of loads inserted to the mem dependence unit.
system.cpu0.memDep0.insertedStores          332511940                       # Number of stores inserted to the mem dependence unit.
system.cpu0.misc_regfile_reads                   2921                       # number of misc regfile reads
system.cpu0.misc_regfile_writes                    22                       # number of misc regfile writes
system.cpu0.numCycles                      5540778541                       # number of cpu cycles simulated
system.cpu0.numWorkItemsCompleted                   0                       # number of work items this cpu completed
system.cpu0.numWorkItemsStarted                     0                       # number of work items this cpu started
system.cpu0.quiesceCycles                     8587304                       # Total number of cycles that CPU has spent quiesced or waiting for an interrupt
system.cpu0.rename.BlockCycles              722834610                       # Number of cycles rename is blocking
system.cpu0.rename.CommittedMaps           1525832337                       # Number of HB maps that are committed
system.cpu0.rename.IQFullEvents              28436543                       # Number of times rename has blocked due to IQ full
system.cpu0.rename.IdleCycles              1511753119                       # Number of cycles rename is idle
system.cpu0.rename.LQFullEvents              85168839                       # Number of times rename has blocked due to LQ full
system.cpu0.rename.ROBFullEvents               107015                       # Number of times rename has blocked due to ROB full
system.cpu0.rename.RenameLookups           3234206102                       # Number of register rename lookups that rename has made
system.cpu0.rename.RenamedInsts            2621831713                       # Number of instructions processed by rename
system.cpu0.rename.RenamedOperands         1689974874                       # Number of destination operands rename has renamed
system.cpu0.rename.RunCycles               1805684669                       # Number of cycles rename is running
system.cpu0.rename.SQFullEvents              64048266                       # Number of times rename has blocked due to SQ full
system.cpu0.rename.SquashCycles              16071897                       # Number of cycles rename is squashing
system.cpu0.rename.UnblockCycles            178759904                       # Number of cycles rename is unblocking
system.cpu0.rename.UndoneMaps               164142505                       # Number of HB maps that are undone due to squashing
system.cpu0.rename.fp_rename_lookups              122                       # Number of floating rename lookups
system.cpu0.rename.int_rename_lookups      3234205980                       # Number of integer rename lookups
system.cpu0.rename.serializeStallCycles        243278                       # count of cycles rename stalled for serializing inst
system.cpu0.rename.serializingInsts              8921                       # count of serializing insts renamed
system.cpu0.rename.skidInsts                 83372376                       # count of insts added to the skid buffer
system.cpu0.rename.tempSerializingInsts          8911                       # count of temporary serializing insts renamed
system.cpu0.rob.rob_reads                  6699996843                       # The number of ROB reads
system.cpu0.rob.rob_writes                 5238534565                       # The number of ROB writes
system.cpu0.timesIdled                       48230884                       # Number of times that the entire CPU went into an idle state and unscheduled itself
system.cpu0.workload.numSyscalls                 2863                       # Number of system calls
system.cpu1.branchPred.BTBCorrect                   0                       # Number of correct BTB predictions (this stat may not work properly.
system.cpu1.branchPred.BTBHitPct            79.468179                       # BTB Hit Percentage
system.cpu1.branchPred.BTBHits               27032823                       # Number of BTB hits
system.cpu1.branchPred.BTBLookups            34017167                       # Number of BTB lookups
system.cpu1.branchPred.RASInCorrect                 0                       # Number of incorrect RAS predictions.
system.cpu1.branchPred.condIncorrect          2537266                       # Number of conditional branches incorrect
system.cpu1.branchPred.condPredicted         40798290                       # Number of conditional branches predicted
system.cpu1.branchPred.indirectHits           3037200                       # Number of indirect target hits.
system.cpu1.branchPred.indirectLookups        3051239                       # Number of indirect predictor lookups.
system.cpu1.branchPred.indirectMisses           14039                       # Number of indirect misses.
system.cpu1.branchPred.lookups               49611065                       # Number of BP lookups
system.cpu1.branchPred.usedRAS                      0                       # Number of times the RAS was used to get a target.
system.cpu1.branchPredindirectMispredicted       112305                       # Number of mispredicted indirect branches.
system.cpu1.commit.amos                       3801586                       # Number of atomic instructions committed
system.cpu1.commit.branchMispredicts          1705331                       # The number of times a branch was mispredicted
system.cpu1.commit.branches                  41143375                       # Number of branches committed
system.cpu1.commit.bw_lim_events              9954411                       # number cycles where commit BW limit reached
system.cpu1.commit.commitNonSpecStalls       11405454                       # The number of times commit has been forced to stall to communicate backwards
system.cpu1.commit.commitSquashedInsts       22997384                       # The number of squashed insts skipped by commit
system.cpu1.commit.committedInsts           219948137                       # Number of instructions committed
system.cpu1.commit.committedOps             223749907                       # Number of ops (including micro ops) committed
system.cpu1.commit.committed_per_cycle::samples    868273283                       # Number of insts commited each cycle
system.cpu1.commit.committed_per_cycle::mean     0.257695                       # Number of insts commited each cycle
system.cpu1.commit.committed_per_cycle::stdev     1.076927                       # Number of insts commited each cycle
system.cpu1.commit.committed_per_cycle::underflows            0      0.00%      0.00% # Number of insts commited each cycle
system.cpu1.commit.committed_per_cycle::0    786214791     90.55%     90.55% # Number of insts commited each cycle
system.cpu1.commit.committed_per_cycle::1     38534681      4.44%     94.99% # Number of insts commited each cycle
system.cpu1.commit.committed_per_cycle::2     14489362      1.67%     96.66% # Number of insts commited each cycle
system.cpu1.commit.committed_per_cycle::3      8190530      0.94%     97.60% # Number of insts commited each cycle
system.cpu1.commit.committed_per_cycle::4      5249617      0.60%     98.20% # Number of insts commited each cycle
system.cpu1.commit.committed_per_cycle::5      3422313      0.39%     98.60% # Number of insts commited each cycle
system.cpu1.commit.committed_per_cycle::6      1603455      0.18%     98.78% # Number of insts commited each cycle
system.cpu1.commit.committed_per_cycle::7       614123      0.07%     98.85% # Number of insts commited each cycle
system.cpu1.commit.committed_per_cycle::8      9954411      1.15%    100.00% # Number of insts commited each cycle
system.cpu1.commit.committed_per_cycle::overflows            0      0.00%    100.00% # Number of insts commited each cycle
system.cpu1.commit.committed_per_cycle::min_value            0                       # Number of insts commited each cycle
system.cpu1.commit.committed_per_cycle::max_value            8                       # Number of insts commited each cycle
system.cpu1.commit.committed_per_cycle::total    868273283                       # Number of insts commited each cycle
system.cpu1.commit.fp_insts                        12                       # Number of committed floating point instructions.
system.cpu1.commit.function_calls             5481830                       # Number of function calls committed.
system.cpu1.commit.int_insts                213858230                       # Number of committed integer instructions.
system.cpu1.commit.loads                     55662910                       # Number of loads committed
system.cpu1.commit.membars                    7603302                       # Number of memory barriers committed
system.cpu1.commit.op_class_0::No_OpClass      7603302      3.40%      3.40% # Class of committed instruction
system.cpu1.commit.op_class_0::IntAlu       132568261     59.25%     62.65% # Class of committed instruction
system.cpu1.commit.op_class_0::IntMult         855261      0.38%     63.03% # Class of committed instruction
system.cpu1.commit.op_class_0::IntDiv         1704251      0.76%     63.79% # Class of committed instruction
system.cpu1.commit.op_class_0::FloatAdd             0      0.00%     63.79% # Class of committed instruction
system.cpu1.commit.op_class_0::FloatCmp             0      0.00%     63.79% # Class of committed instruction
system.cpu1.commit.op_class_0::FloatCvt             0      0.00%     63.79% # Class of committed instruction
system.cpu1.commit.op_class_0::FloatMult            0      0.00%     63.79% # Class of committed instruction
system.cpu1.commit.op_class_0::FloatMultAcc            0      0.00%     63.79% # Class of committed instruction
system.cpu1.commit.op_class_0::FloatDiv             0      0.00%     63.79% # Class of committed instruction
system.cpu1.commit.op_class_0::FloatMisc            0      0.00%     63.79% # Class of committed instruction
system.cpu1.commit.op_class_0::FloatSqrt            0      0.00%     63.79% # Class of committed instruction
system.cpu1.commit.op_class_0::SimdAdd              0      0.00%     63.79% # Class of committed instruction
system.cpu1.commit.op_class_0::SimdAddAcc            0      0.00%     63.79% # Class of committed instruction
system.cpu1.commit.op_class_0::SimdAlu              0      0.00%     63.79% # Class of committed instruction
system.cpu1.commit.op_class_0::SimdCmp              0      0.00%     63.79% # Class of committed instruction
system.cpu1.commit.op_class_0::SimdCvt              0      0.00%     63.79% # Class of committed instruction
system.cpu1.commit.op_class_0::SimdMisc             0      0.00%     63.79% # Class of committed instruction
system.cpu1.commit.op_class_0::SimdMult             0      0.00%     63.79% # Class of committed instruction
system.cpu1.commit.op_class_0::SimdMultAcc            0      0.00%     63.79% # Class of committed instruction
system.cpu1.commit.op_class_0::SimdShift            0      0.00%     63.79% # Class of committed instruction
system.cpu1.commit.op_class_0::SimdShiftAcc            0      0.00%     63.79% # Class of committed instruction
system.cpu1.commit.op_class_0::SimdDiv              0      0.00%     63.79% # Class of committed instruction
system.cpu1.commit.op_class_0::SimdSqrt             0      0.00%     63.79% # Class of committed instruction
system.cpu1.commit.op_class_0::SimdFloatAdd            0      0.00%     63.79% # Class of committed instruction
system.cpu1.commit.op_class_0::SimdFloatAlu            0      0.00%     63.79% # Class of committed instruction
system.cpu1.commit.op_class_0::SimdFloatCmp            0      0.00%     63.79% # Class of committed instruction
system.cpu1.commit.op_class_0::SimdFloatCvt            0      0.00%     63.79% # Class of committed instruction
system.cpu1.commit.op_class_0::SimdFloatDiv            0      0.00%     63.79% # Class of committed instruction
system.cpu1.commit.op_class_0::SimdFloatMisc            0      0.00%     63.79% # Class of committed instruction
system.cpu1.commit.op_class_0::SimdFloatMult            0      0.00%     63.79% # Class of committed instruction
system.cpu1.commit.op_class_0::SimdFloatMultAcc            0      0.00%     63.79% # Class of committed instruction
system.cpu1.commit.op_class_0::SimdFloatSqrt            0      0.00%     63.79% # Class of committed instruction
system.cpu1.commit.op_class_0::SimdReduceAdd            0      0.00%     63.79% # Class of committed instruction
system.cpu1.commit.op_class_0::SimdReduceAlu            0      0.00%     63.79% # Class of committed instruction
system.cpu1.commit.op_class_0::SimdReduceCmp            0      0.00%     63.79% # Class of committed instruction
system.cpu1.commit.op_class_0::SimdFloatReduceAdd            0      0.00%     63.79% # Class of committed instruction
system.cpu1.commit.op_class_0::SimdFloatReduceCmp            0      0.00%     63.79% # Class of committed instruction
system.cpu1.commit.op_class_0::SimdAes              0      0.00%     63.79% # Class of committed instruction
system.cpu1.commit.op_class_0::SimdAesMix            0      0.00%     63.79% # Class of committed instruction
system.cpu1.commit.op_class_0::SimdSha1Hash            0      0.00%     63.79% # Class of committed instruction
system.cpu1.commit.op_class_0::SimdSha1Hash2            0      0.00%     63.79% # Class of committed instruction
system.cpu1.commit.op_class_0::SimdSha256Hash            0      0.00%     63.79% # Class of committed instruction
system.cpu1.commit.op_class_0::SimdSha256Hash2            0      0.00%     63.79% # Class of committed instruction
system.cpu1.commit.op_class_0::SimdShaSigma2            0      0.00%     63.79% # Class of committed instruction
system.cpu1.commit.op_class_0::SimdShaSigma3            0      0.00%     63.79% # Class of committed instruction
system.cpu1.commit.op_class_0::SimdPredAlu            0      0.00%     63.79% # Class of committed instruction
system.cpu1.commit.op_class_0::MemRead       59464496     26.58%     90.37% # Class of committed instruction
system.cpu1.commit.op_class_0::MemWrite      21554324      9.63%    100.00% # Class of committed instruction
system.cpu1.commit.op_class_0::FloatMemRead            0      0.00%    100.00% # Class of committed instruction
system.cpu1.commit.op_class_0::FloatMemWrite           12      0.00%    100.00% # Class of committed instruction
system.cpu1.commit.op_class_0::IprAccess            0      0.00%    100.00% # Class of committed instruction
system.cpu1.commit.op_class_0::InstPrefetch            0      0.00%    100.00% # Class of committed instruction
system.cpu1.commit.op_class_0::total        223749907                       # Class of committed instruction
system.cpu1.commit.refs                      81018832                       # Number of memory references committed
system.cpu1.commit.swp_count                        0                       # Number of s/w prefetches committed
system.cpu1.commit.vec_insts                        0                       # Number of committed Vector instructions.
system.cpu1.committedInsts                  219948137                       # Number of Instructions Simulated
system.cpu1.committedOps                    223749907                       # Number of Ops (including micro ops) Simulated
system.cpu1.cpi                              3.998210                       # CPI: Cycles Per Instruction
system.cpu1.cpi_total                        3.998210                       # CPI: Total CPI of All Threads
system.cpu1.decode.BlockedCycles            710449313                       # Number of cycles decode is blocked
system.cpu1.decode.BranchMispred               843520                       # Number of times decode detected a branch misprediction
system.cpu1.decode.BranchResolved            25442404                       # Number of times decode resolved a branch
system.cpu1.decode.DecodedInsts             255252820                       # Number of instructions handled by decode
system.cpu1.decode.IdleCycles                39346469                       # Number of cycles decode is idle
system.cpu1.decode.RunCycles                111087909                       # Number of cycles decode is running
system.cpu1.decode.SquashCycles               1706692                       # Number of cycles decode is squashing
system.cpu1.decode.SquashedInsts              2156921                       # Number of squashed instructions handled by decode
system.cpu1.decode.UnblockCycles              9761881                       # Number of cycles decode is unblocking
system.cpu1.dtb.accesses                            0                       # DTB accesses
system.cpu1.dtb.hits                                0                       # DTB hits
system.cpu1.dtb.misses                              0                       # DTB misses
system.cpu1.dtb.read_accesses                       0                       # DTB read accesses
system.cpu1.dtb.read_hits                           0                       # DTB read hits
system.cpu1.dtb.read_misses                         0                       # DTB read misses
system.cpu1.dtb.write_accesses                      0                       # DTB write accesses
system.cpu1.dtb.write_hits                          0                       # DTB write hits
system.cpu1.dtb.write_misses                        0                       # DTB write misses
system.cpu1.fetch.Branches                   49611065                       # Number of branches that fetch encountered
system.cpu1.fetch.CacheLines                 36579137                       # Number of cache lines fetched
system.cpu1.fetch.Cycles                    824665929                       # Number of cycles fetch has run and was not squashing or blocked
system.cpu1.fetch.IcacheSquashes               599538                       # Number of outstanding Icache misses that were squashed
system.cpu1.fetch.IcacheWaitRetryStallCycles           13                       # Number of stall cycles due to full MSHR
system.cpu1.fetch.Insts                     261558695                       # Number of instructions fetch has processed
system.cpu1.fetch.MiscStallCycles                   2                       # Number of cycles fetch has spent waiting on interrupts, or bad addresses, or out of MSHRs
system.cpu1.fetch.SquashCycles                5077254                       # Number of cycles fetch has spent squashing
system.cpu1.fetch.branchRate                 0.056415                       # Number of branch fetches per cycle
system.cpu1.fetch.icacheStallCycles          45147693                       # Number of cycles fetch is stalled on an Icache miss
system.cpu1.fetch.predictedBranches          30070023                       # Number of branches that fetch has predicted taken
system.cpu1.fetch.rate                       0.297429                       # Number of inst fetches per cycle
system.cpu1.fetch.rateDist::samples         872352264                       # Number of instructions fetched each cycle (Total)
system.cpu1.fetch.rateDist::mean             0.304190                       # Number of instructions fetched each cycle (Total)
system.cpu1.fetch.rateDist::stdev            0.759349                       # Number of instructions fetched each cycle (Total)
system.cpu1.fetch.rateDist::underflows              0      0.00%      0.00% # Number of instructions fetched each cycle (Total)
system.cpu1.fetch.rateDist::0               703414876     80.63%     80.63% # Number of instructions fetched each cycle (Total)
system.cpu1.fetch.rateDist::1               110141822     12.63%     93.26% # Number of instructions fetched each cycle (Total)
system.cpu1.fetch.rateDist::2                37453999      4.29%     97.55% # Number of instructions fetched each cycle (Total)
system.cpu1.fetch.rateDist::3                12265080      1.41%     98.96% # Number of instructions fetched each cycle (Total)
system.cpu1.fetch.rateDist::4                 3500116      0.40%     99.36% # Number of instructions fetched each cycle (Total)
system.cpu1.fetch.rateDist::5                 3942983      0.45%     99.81% # Number of instructions fetched each cycle (Total)
system.cpu1.fetch.rateDist::6                 1633137      0.19%    100.00% # Number of instructions fetched each cycle (Total)
system.cpu1.fetch.rateDist::7                      17      0.00%    100.00% # Number of instructions fetched each cycle (Total)
system.cpu1.fetch.rateDist::8                     234      0.00%    100.00% # Number of instructions fetched each cycle (Total)
system.cpu1.fetch.rateDist::overflows               0      0.00%    100.00% # Number of instructions fetched each cycle (Total)
system.cpu1.fetch.rateDist::min_value               0                       # Number of instructions fetched each cycle (Total)
system.cpu1.fetch.rateDist::max_value               8                       # Number of instructions fetched each cycle (Total)
system.cpu1.fetch.rateDist::total           872352264                       # Number of instructions fetched each cycle (Total)
system.cpu1.fp_regfile_reads                       12                       # number of floating regfile reads
system.cpu1.idleCycles                        7046611                       # Total number of cycles that the CPU has spent unscheduled due to idling
system.cpu1.iew.branchMispredicts             1836780                       # Number of branch mispredicts detected at execute
system.cpu1.iew.exec_branches                44137028                       # Number of branches executed
system.cpu1.iew.exec_nop                            0                       # number of nop insts executed
system.cpu1.iew.exec_rate                    0.272135                       # Inst execution rate
system.cpu1.iew.exec_refs                    85729959                       # number of memory reference insts executed
system.cpu1.iew.exec_stores                  26095296                       # Number of stores executed
system.cpu1.iew.exec_swp                            0                       # number of swp insts executed
system.cpu1.iew.iewBlockCycles              581005944                       # Number of cycles IEW is blocking
system.cpu1.iew.iewDispLoadInsts             60243483                       # Number of dispatched load instructions
system.cpu1.iew.iewDispNonSpecInsts           3802255                       # Number of dispatched non-speculative instructions
system.cpu1.iew.iewDispSquashedInsts          1333619                       # Number of squashed instructions skipped by dispatch
system.cpu1.iew.iewDispStoreInsts            27021464                       # Number of dispatched store instructions
system.cpu1.iew.iewDispatchedInsts          246733791                       # Number of instructions dispatched to IQ
system.cpu1.iew.iewExecLoadInsts             59634663                       # Number of load instructions executed
system.cpu1.iew.iewExecSquashedInsts          1578210                       # Number of squashed instructions skipped in execute
system.cpu1.iew.iewExecutedInsts            239315637                       # Number of executed instructions
system.cpu1.iew.iewIQFullEvents               2415527                       # Number of times the IQ has become full, causing a stall
system.cpu1.iew.iewIdleCycles                       0                       # Number of cycles IEW is idle
system.cpu1.iew.iewLSQFullEvents             10644901                       # Number of times the LSQ has become full, causing a stall
system.cpu1.iew.iewSquashCycles               1706692                       # Number of cycles IEW is squashing
system.cpu1.iew.iewUnblockCycles             17715334                       # Number of cycles IEW is unblocking
system.cpu1.iew.lsq.thread0.blockedLoads            0                       # Number of blocked loads due to partial load-store forwarding
system.cpu1.iew.lsq.thread0.cacheBlocked        83541                       # Number of times an access to memory failed due to the cache being blocked
system.cpu1.iew.lsq.thread0.forwLoads         3020806                       # Number of loads that had data forwarded from stores
system.cpu1.iew.lsq.thread0.ignoredResponses        27402                       # Number of memory responses ignored because the instruction is squashed
system.cpu1.iew.lsq.thread0.invAddrLoads            0                       # Number of loads ignored due to an invalid address
system.cpu1.iew.lsq.thread0.invAddrSwpfs            0                       # Number of software prefetches ignored due to an invalid address
system.cpu1.iew.lsq.thread0.memOrderViolation         1732                       # Number of memory ordering violations
system.cpu1.iew.lsq.thread0.rescheduledLoads         1364                       # Number of loads that were rescheduled
system.cpu1.iew.lsq.thread0.squashedLoads      4580573                       # Number of loads squashed
system.cpu1.iew.lsq.thread0.squashedStores      1665542                       # Number of stores squashed
system.cpu1.iew.memOrderViolationEvents          1732                       # Number of memory order violations
system.cpu1.iew.predictedNotTakenIncorrect       391163                       # Number of branches that were predicted not taken incorrectly
system.cpu1.iew.predictedTakenIncorrect       1445617                       # Number of branches that were predicted taken incorrectly
system.cpu1.iew.wb_consumers                138533812                       # num instructions consuming a value
system.cpu1.iew.wb_count                    237774325                       # cumulative count of insts written-back
system.cpu1.iew.wb_fanout                    0.813428                       # average fanout of values written-back
system.cpu1.iew.wb_producers                112687343                       # num instructions producing a value
system.cpu1.iew.wb_rate                      0.270383                       # insts written-back per cycle
system.cpu1.iew.wb_sent                     237862824                       # cumulative count of insts sent to commit
system.cpu1.int_regfile_reads               304271368                       # number of integer regfile reads
system.cpu1.int_regfile_writes              166568514                       # number of integer regfile writes
system.cpu1.ipc                              0.250112                       # IPC: Instructions Per Cycle
system.cpu1.ipc_total                        0.250112                       # IPC: Total IPC of All Threads
system.cpu1.iq.FU_type_0::No_OpClass          7603404      3.16%      3.16% # Type of FU issued
system.cpu1.iq.FU_type_0::IntAlu            144402325     59.94%     63.10% # Type of FU issued
system.cpu1.iq.FU_type_0::IntMult              855397      0.36%     63.46% # Type of FU issued
system.cpu1.iq.FU_type_0::IntDiv              1704696      0.71%     64.16% # Type of FU issued
system.cpu1.iq.FU_type_0::FloatAdd                  0      0.00%     64.16% # Type of FU issued
system.cpu1.iq.FU_type_0::FloatCmp                  0      0.00%     64.16% # Type of FU issued
system.cpu1.iq.FU_type_0::FloatCvt                  0      0.00%     64.16% # Type of FU issued
system.cpu1.iq.FU_type_0::FloatMult                 0      0.00%     64.16% # Type of FU issued
system.cpu1.iq.FU_type_0::FloatMultAcc              0      0.00%     64.16% # Type of FU issued
system.cpu1.iq.FU_type_0::FloatDiv                  0      0.00%     64.16% # Type of FU issued
system.cpu1.iq.FU_type_0::FloatMisc                 0      0.00%     64.16% # Type of FU issued
system.cpu1.iq.FU_type_0::FloatSqrt                 0      0.00%     64.16% # Type of FU issued
system.cpu1.iq.FU_type_0::SimdAdd                   0      0.00%     64.16% # Type of FU issued
system.cpu1.iq.FU_type_0::SimdAddAcc                0      0.00%     64.16% # Type of FU issued
system.cpu1.iq.FU_type_0::SimdAlu                   0      0.00%     64.16% # Type of FU issued
system.cpu1.iq.FU_type_0::SimdCmp                   0      0.00%     64.16% # Type of FU issued
system.cpu1.iq.FU_type_0::SimdCvt                   0      0.00%     64.16% # Type of FU issued
system.cpu1.iq.FU_type_0::SimdMisc                  0      0.00%     64.16% # Type of FU issued
system.cpu1.iq.FU_type_0::SimdMult                  0      0.00%     64.16% # Type of FU issued
system.cpu1.iq.FU_type_0::SimdMultAcc               0      0.00%     64.16% # Type of FU issued
system.cpu1.iq.FU_type_0::SimdShift                 0      0.00%     64.16% # Type of FU issued
system.cpu1.iq.FU_type_0::SimdShiftAcc              0      0.00%     64.16% # Type of FU issued
system.cpu1.iq.FU_type_0::SimdDiv                   0      0.00%     64.16% # Type of FU issued
system.cpu1.iq.FU_type_0::SimdSqrt                  0      0.00%     64.16% # Type of FU issued
system.cpu1.iq.FU_type_0::SimdFloatAdd              0      0.00%     64.16% # Type of FU issued
system.cpu1.iq.FU_type_0::SimdFloatAlu              0      0.00%     64.16% # Type of FU issued
system.cpu1.iq.FU_type_0::SimdFloatCmp              0      0.00%     64.16% # Type of FU issued
system.cpu1.iq.FU_type_0::SimdFloatCvt              0      0.00%     64.16% # Type of FU issued
system.cpu1.iq.FU_type_0::SimdFloatDiv              0      0.00%     64.16% # Type of FU issued
system.cpu1.iq.FU_type_0::SimdFloatMisc             0      0.00%     64.16% # Type of FU issued
system.cpu1.iq.FU_type_0::SimdFloatMult             0      0.00%     64.16% # Type of FU issued
system.cpu1.iq.FU_type_0::SimdFloatMultAcc            0      0.00%     64.16% # Type of FU issued
system.cpu1.iq.FU_type_0::SimdFloatSqrt             0      0.00%     64.16% # Type of FU issued
system.cpu1.iq.FU_type_0::SimdReduceAdd             0      0.00%     64.16% # Type of FU issued
system.cpu1.iq.FU_type_0::SimdReduceAlu             0      0.00%     64.16% # Type of FU issued
system.cpu1.iq.FU_type_0::SimdReduceCmp             0      0.00%     64.16% # Type of FU issued
system.cpu1.iq.FU_type_0::SimdFloatReduceAdd            0      0.00%     64.16% # Type of FU issued
system.cpu1.iq.FU_type_0::SimdFloatReduceCmp            0      0.00%     64.16% # Type of FU issued
system.cpu1.iq.FU_type_0::SimdAes                   0      0.00%     64.16% # Type of FU issued
system.cpu1.iq.FU_type_0::SimdAesMix                0      0.00%     64.16% # Type of FU issued
system.cpu1.iq.FU_type_0::SimdSha1Hash              0      0.00%     64.16% # Type of FU issued
system.cpu1.iq.FU_type_0::SimdSha1Hash2             0      0.00%     64.16% # Type of FU issued
system.cpu1.iq.FU_type_0::SimdSha256Hash            0      0.00%     64.16% # Type of FU issued
system.cpu1.iq.FU_type_0::SimdSha256Hash2            0      0.00%     64.16% # Type of FU issued
system.cpu1.iq.FU_type_0::SimdShaSigma2             0      0.00%     64.16% # Type of FU issued
system.cpu1.iq.FU_type_0::SimdShaSigma3             0      0.00%     64.16% # Type of FU issued
system.cpu1.iq.FU_type_0::SimdPredAlu               0      0.00%     64.16% # Type of FU issued
system.cpu1.iq.FU_type_0::MemRead            63940814     26.54%     90.71% # Type of FU issued
system.cpu1.iq.FU_type_0::MemWrite           22387199      9.29%    100.00% # Type of FU issued
system.cpu1.iq.FU_type_0::FloatMemRead              0      0.00%    100.00% # Type of FU issued
system.cpu1.iq.FU_type_0::FloatMemWrite            12      0.00%    100.00% # Type of FU issued
system.cpu1.iq.FU_type_0::IprAccess                 0      0.00%    100.00% # Type of FU issued
system.cpu1.iq.FU_type_0::InstPrefetch              0      0.00%    100.00% # Type of FU issued
system.cpu1.iq.FU_type_0::total             240893847                       # Type of FU issued
system.cpu1.iq.fp_alu_accesses                     16                       # Number of floating point alu accesses
system.cpu1.iq.fp_inst_queue_reads                 28                       # Number of floating instruction queue reads
system.cpu1.iq.fp_inst_queue_wakeup_accesses           12                       # Number of floating instruction queue wakeup accesses
system.cpu1.iq.fp_inst_queue_writes                12                       # Number of floating instruction queue writes
system.cpu1.iq.fu_busy_cnt                    7228345                       # FU busy when requested
system.cpu1.iq.fu_busy_rate                  0.030006                       # FU busy rate (busy events/executed inst)
system.cpu1.iq.fu_full::No_OpClass                  0      0.00%      0.00% # attempts to use FU when none available
system.cpu1.iq.fu_full::IntAlu                 982213     13.59%     13.59% # attempts to use FU when none available
system.cpu1.iq.fu_full::IntMult                 19015      0.26%     13.85% # attempts to use FU when none available
system.cpu1.iq.fu_full::IntDiv                1539139     21.29%     35.14% # attempts to use FU when none available
system.cpu1.iq.fu_full::FloatAdd                    0      0.00%     35.14% # attempts to use FU when none available
system.cpu1.iq.fu_full::FloatCmp                    0      0.00%     35.14% # attempts to use FU when none available
system.cpu1.iq.fu_full::FloatCvt                    0      0.00%     35.14% # attempts to use FU when none available
system.cpu1.iq.fu_full::FloatMult                   0      0.00%     35.14% # attempts to use FU when none available
system.cpu1.iq.fu_full::FloatMultAcc                0      0.00%     35.14% # attempts to use FU when none available
system.cpu1.iq.fu_full::FloatDiv                    0      0.00%     35.14% # attempts to use FU when none available
system.cpu1.iq.fu_full::FloatMisc                   0      0.00%     35.14% # attempts to use FU when none available
system.cpu1.iq.fu_full::FloatSqrt                   0      0.00%     35.14% # attempts to use FU when none available
system.cpu1.iq.fu_full::SimdAdd                     0      0.00%     35.14% # attempts to use FU when none available
system.cpu1.iq.fu_full::SimdAddAcc                  0      0.00%     35.14% # attempts to use FU when none available
system.cpu1.iq.fu_full::SimdAlu                     0      0.00%     35.14% # attempts to use FU when none available
system.cpu1.iq.fu_full::SimdCmp                     0      0.00%     35.14% # attempts to use FU when none available
system.cpu1.iq.fu_full::SimdCvt                     0      0.00%     35.14% # attempts to use FU when none available
system.cpu1.iq.fu_full::SimdMisc                    0      0.00%     35.14% # attempts to use FU when none available
system.cpu1.iq.fu_full::SimdMult                    0      0.00%     35.14% # attempts to use FU when none available
system.cpu1.iq.fu_full::SimdMultAcc                 0      0.00%     35.14% # attempts to use FU when none available
system.cpu1.iq.fu_full::SimdShift                   0      0.00%     35.14% # attempts to use FU when none available
system.cpu1.iq.fu_full::SimdShiftAcc                0      0.00%     35.14% # attempts to use FU when none available
system.cpu1.iq.fu_full::SimdDiv                     0      0.00%     35.14% # attempts to use FU when none available
system.cpu1.iq.fu_full::SimdSqrt                    0      0.00%     35.14% # attempts to use FU when none available
system.cpu1.iq.fu_full::SimdFloatAdd                0      0.00%     35.14% # attempts to use FU when none available
system.cpu1.iq.fu_full::SimdFloatAlu                0      0.00%     35.14% # attempts to use FU when none available
system.cpu1.iq.fu_full::SimdFloatCmp                0      0.00%     35.14% # attempts to use FU when none available
system.cpu1.iq.fu_full::SimdFloatCvt                0      0.00%     35.14% # attempts to use FU when none available
system.cpu1.iq.fu_full::SimdFloatDiv                0      0.00%     35.14% # attempts to use FU when none available
system.cpu1.iq.fu_full::SimdFloatMisc               0      0.00%     35.14% # attempts to use FU when none available
system.cpu1.iq.fu_full::SimdFloatMult               0      0.00%     35.14% # attempts to use FU when none available
system.cpu1.iq.fu_full::SimdFloatMultAcc            0      0.00%     35.14% # attempts to use FU when none available
system.cpu1.iq.fu_full::SimdFloatSqrt               0      0.00%     35.14% # attempts to use FU when none available
system.cpu1.iq.fu_full::SimdReduceAdd               0      0.00%     35.14% # attempts to use FU when none available
system.cpu1.iq.fu_full::SimdReduceAlu               0      0.00%     35.14% # attempts to use FU when none available
system.cpu1.iq.fu_full::SimdReduceCmp               0      0.00%     35.14% # attempts to use FU when none available
system.cpu1.iq.fu_full::SimdFloatReduceAdd            0      0.00%     35.14% # attempts to use FU when none available
system.cpu1.iq.fu_full::SimdFloatReduceCmp            0      0.00%     35.14% # attempts to use FU when none available
system.cpu1.iq.fu_full::SimdAes                     0      0.00%     35.14% # attempts to use FU when none available
system.cpu1.iq.fu_full::SimdAesMix                  0      0.00%     35.14% # attempts to use FU when none available
system.cpu1.iq.fu_full::SimdSha1Hash                0      0.00%     35.14% # attempts to use FU when none available
system.cpu1.iq.fu_full::SimdSha1Hash2               0      0.00%     35.14% # attempts to use FU when none available
system.cpu1.iq.fu_full::SimdSha256Hash              0      0.00%     35.14% # attempts to use FU when none available
system.cpu1.iq.fu_full::SimdSha256Hash2             0      0.00%     35.14% # attempts to use FU when none available
system.cpu1.iq.fu_full::SimdShaSigma2               0      0.00%     35.14% # attempts to use FU when none available
system.cpu1.iq.fu_full::SimdShaSigma3               0      0.00%     35.14% # attempts to use FU when none available
system.cpu1.iq.fu_full::SimdPredAlu                 0      0.00%     35.14% # attempts to use FU when none available
system.cpu1.iq.fu_full::MemRead               4108281     56.84%     91.98% # attempts to use FU when none available
[...]
system.cpu1.dcache.WriteReq_misses::total      8262176                       # number of WriteReq misses
system.cpu1.dcache.WriteReq_miss_latency::.cpu1.data 679480289157                       # number of WriteReq miss cycles
system.cpu1.dcache.WriteReq_miss_latency::total 679480289157                       # number of WriteReq miss cycles
system.cpu1.dcache.WriteReq_accesses::.cpu1.data     21061372                       # number of WriteReq accesses(hits+misses)
system.cpu1.dcache.WriteReq_accesses::total     21061372                       # number of WriteReq accesses(hits+misses)
system.cpu1.dcache.WriteReq_miss_rate::.cpu1.data     0.392290                       # miss rate for WriteReq accesses
system.cpu1.dcache.WriteReq_miss_rate::total     0.392290                       # miss rate for WriteReq accesses
system.cpu1.dcache.WriteReq_avg_miss_latency::.cpu1.data 82239.871089                       # average WriteReq miss latency
system.cpu1.dcache.WriteReq_avg_miss_latency::total 82239.871089                       # average WriteReq miss latency
system.cpu1.dcache.WriteReq_mshr_hits::.cpu1.data      4410401                       # number of WriteReq MSHR hits
system.cpu1.dcache.WriteReq_mshr_hits::total      4410401                       # number of WriteReq MSHR hits
system.cpu1.dcache.WriteReq_mshr_misses::.cpu1.data      3851775                       # number of WriteReq MSHR misses
system.cpu1.dcache.WriteReq_mshr_misses::total      3851775                       # number of WriteReq MSHR misses
system.cpu1.dcache.WriteReq_mshr_miss_latency::.cpu1.data 363479478191                       # number of WriteReq MSHR miss cycles
system.cpu1.dcache.WriteReq_mshr_miss_latency::total 363479478191                       # number of WriteReq MSHR miss cycles
system.cpu1.dcache.WriteReq_mshr_miss_rate::.cpu1.data     0.182883                       # mshr miss rate for WriteReq accesses
system.cpu1.dcache.WriteReq_mshr_miss_rate::total     0.182883                       # mshr miss rate for WriteReq accesses
system.cpu1.dcache.WriteReq_avg_mshr_miss_latency::.cpu1.data 94366.747328                       # average WriteReq mshr miss latency
system.cpu1.dcache.WriteReq_avg_mshr_miss_latency::total 94366.747328                       # average WriteReq mshr miss latency
system.cpu1.dcache.LoadLockedReq_hits::.cpu1.data      2786106                       # number of LoadLockedReq hits
system.cpu1.dcache.LoadLockedReq_hits::total      2786106                       # number of LoadLockedReq hits
system.cpu1.dcache.LoadLockedReq_misses::.cpu1.data       138386                       # number of LoadLockedReq misses
system.cpu1.dcache.LoadLockedReq_misses::total       138386                       # number of LoadLockedReq misses
system.cpu1.dcache.LoadLockedReq_miss_latency::.cpu1.data   7568165000                       # number of LoadLockedReq miss cycles
system.cpu1.dcache.LoadLockedReq_miss_latency::total   7568165000                       # number of LoadLockedReq miss cycles
system.cpu1.dcache.LoadLockedReq_accesses::.cpu1.data      2924492                       # number of LoadLockedReq accesses(hits+misses)
system.cpu1.dcache.LoadLockedReq_accesses::total      2924492                       # number of LoadLockedReq accesses(hits+misses)
system.cpu1.dcache.LoadLockedReq_miss_rate::.cpu1.data     0.047320                       # miss rate for LoadLockedReq accesses
system.cpu1.dcache.LoadLockedReq_miss_rate::total     0.047320                       # miss rate for LoadLockedReq accesses
system.cpu1.dcache.LoadLockedReq_avg_miss_latency::.cpu1.data 54688.805226                       # average LoadLockedReq miss latency
system.cpu1.dcache.LoadLockedReq_avg_miss_latency::total 54688.805226                       # average LoadLockedReq miss latency
system.cpu1.dcache.LoadLockedReq_mshr_hits::.cpu1.data        53810                       # number of LoadLockedReq MSHR hits
system.cpu1.dcache.LoadLockedReq_mshr_hits::total        53810                       # number of LoadLockedReq MSHR hits
system.cpu1.dcache.LoadLockedReq_mshr_misses::.cpu1.data        84576                       # number of LoadLockedReq MSHR misses
system.cpu1.dcache.LoadLockedReq_mshr_misses::total        84576                       # number of LoadLockedReq MSHR misses
system.cpu1.dcache.LoadLockedReq_mshr_miss_latency::.cpu1.data   5183664000                       # number of LoadLockedReq MSHR miss cycles
system.cpu1.dcache.LoadLockedReq_mshr_miss_latency::total   5183664000                       # number of LoadLockedReq MSHR miss cycles
system.cpu1.dcache.LoadLockedReq_mshr_miss_rate::.cpu1.data     0.028920                       # mshr miss rate for LoadLockedReq accesses
system.cpu1.dcache.LoadLockedReq_mshr_miss_rate::total     0.028920                       # mshr miss rate for LoadLockedReq accesses
system.cpu1.dcache.LoadLockedReq_avg_mshr_miss_latency::.cpu1.data 61290.011351                       # average LoadLockedReq mshr miss latency
system.cpu1.dcache.LoadLockedReq_avg_mshr_miss_latency::total 61290.011351                       # average LoadLockedReq mshr miss latency
system.cpu1.dcache.StoreCondReq_hits::.cpu1.data      2800299                       # number of StoreCondReq hits
system.cpu1.dcache.StoreCondReq_hits::total      2800299                       # number of StoreCondReq hits
system.cpu1.dcache.StoreCondReq_misses::.cpu1.data        57101                       # number of StoreCondReq misses
system.cpu1.dcache.StoreCondReq_misses::total        57101                       # number of StoreCondReq misses
system.cpu1.dcache.StoreCondReq_miss_latency::.cpu1.data    562178500                       # number of StoreCondReq miss cycles
system.cpu1.dcache.StoreCondReq_miss_latency::total    562178500                       # number of StoreCondReq miss cycles
system.cpu1.dcache.StoreCondReq_accesses::.cpu1.data      2857400                       # number of StoreCondReq accesses(hits+misses)
system.cpu1.dcache.StoreCondReq_accesses::total      2857400                       # number of StoreCondReq accesses(hits+misses)
system.cpu1.dcache.StoreCondReq_miss_rate::.cpu1.data     0.019984                       # miss rate for StoreCondReq accesses
system.cpu1.dcache.StoreCondReq_miss_rate::total     0.019984                       # miss rate for StoreCondReq accesses
system.cpu1.dcache.StoreCondReq_avg_miss_latency::.cpu1.data  9845.335458                       # average StoreCondReq miss latency
system.cpu1.dcache.StoreCondReq_avg_miss_latency::total  9845.335458                       # average StoreCondReq miss latency
system.cpu1.dcache.StoreCondReq_mshr_misses::.cpu1.data        57033                       # number of StoreCondReq MSHR misses
system.cpu1.dcache.StoreCondReq_mshr_misses::total        57033                       # number of StoreCondReq MSHR misses
system.cpu1.dcache.StoreCondReq_mshr_miss_latency::.cpu1.data    505379500                       # number of StoreCondReq MSHR miss cycles
system.cpu1.dcache.StoreCondReq_mshr_miss_latency::total    505379500                       # number of StoreCondReq MSHR miss cycles
system.cpu1.dcache.StoreCondReq_mshr_miss_rate::.cpu1.data     0.019960                       # mshr miss rate for StoreCondReq accesses
system.cpu1.dcache.StoreCondReq_mshr_miss_rate::total     0.019960                       # mshr miss rate for StoreCondReq accesses
system.cpu1.dcache.StoreCondReq_avg_mshr_miss_latency::.cpu1.data  8861.176863                       # average StoreCondReq mshr miss latency
system.cpu1.dcache.StoreCondReq_avg_mshr_miss_latency::total  8861.176863                       # average StoreCondReq mshr miss latency
system.cpu1.dcache.StoreCondFailReq_miss_latency::.cpu1.data      2453000                       # number of StoreCondFailReq miss cycles
system.cpu1.dcache.StoreCondFailReq_miss_latency::total      2453000                       # number of StoreCondFailReq miss cycles
system.cpu1.dcache.StoreCondFailReq_avg_miss_latency::.cpu1.data          inf                       # average StoreCondFailReq miss latency
system.cpu1.dcache.StoreCondFailReq_avg_miss_latency::total          inf                       # average StoreCondFailReq miss latency
system.cpu1.dcache.StoreCondFailReq_mshr_miss_latency::.cpu1.data      2219000                       # number of StoreCondFailReq MSHR miss cycles
system.cpu1.dcache.StoreCondFailReq_mshr_miss_latency::total      2219000                       # number of StoreCondFailReq MSHR miss cycles
system.cpu1.dcache.StoreCondFailReq_avg_mshr_miss_latency::.cpu1.data          inf                       # average StoreCondFailReq mshr miss latency
system.cpu1.dcache.StoreCondFailReq_avg_mshr_miss_latency::total          inf                       # average StoreCondFailReq mshr miss latency
system.cpu1.dcache.SwapReq_hits::.cpu1.data       171983                       # number of SwapReq hits
system.cpu1.dcache.SwapReq_hits::total         171983                       # number of SwapReq hits
system.cpu1.dcache.SwapReq_misses::.cpu1.data        99043                       # number of SwapReq misses
system.cpu1.dcache.SwapReq_misses::total        99043                       # number of SwapReq misses
system.cpu1.dcache.SwapReq_miss_latency::.cpu1.data   3437801980                       # number of SwapReq miss cycles
system.cpu1.dcache.SwapReq_miss_latency::total   3437801980                       # number of SwapReq miss cycles
system.cpu1.dcache.SwapReq_accesses::.cpu1.data       271026                       # number of SwapReq accesses(hits+misses)
system.cpu1.dcache.SwapReq_accesses::total       271026                       # number of SwapReq accesses(hits+misses)
system.cpu1.dcache.SwapReq_miss_rate::.cpu1.data     0.365437                       # miss rate for SwapReq accesses
system.cpu1.dcache.SwapReq_miss_rate::total     0.365437                       # miss rate for SwapReq accesses
system.cpu1.dcache.SwapReq_avg_miss_latency::.cpu1.data 34710.196379                       # average SwapReq miss latency
system.cpu1.dcache.SwapReq_avg_miss_latency::total 34710.196379                       # average SwapReq miss latency
system.cpu1.dcache.SwapReq_mshr_hits::.cpu1.data          477                       # number of SwapReq MSHR hits
system.cpu1.dcache.SwapReq_mshr_hits::total          477                       # number of SwapReq MSHR hits
system.cpu1.dcache.SwapReq_mshr_misses::.cpu1.data        98566                       # number of SwapReq MSHR misses
system.cpu1.dcache.SwapReq_mshr_misses::total        98566                       # number of SwapReq MSHR misses
system.cpu1.dcache.SwapReq_mshr_miss_latency::.cpu1.data   3323143481                       # number of SwapReq MSHR miss cycles
system.cpu1.dcache.SwapReq_mshr_miss_latency::total   3323143481                       # number of SwapReq MSHR miss cycles
system.cpu1.dcache.SwapReq_mshr_miss_rate::.cpu1.data     0.363677                       # mshr miss rate for SwapReq accesses
system.cpu1.dcache.SwapReq_mshr_miss_rate::total     0.363677                       # mshr miss rate for SwapReq accesses
system.cpu1.dcache.SwapReq_avg_mshr_miss_latency::.cpu1.data 33714.906570                       # average SwapReq mshr miss latency
system.cpu1.dcache.SwapReq_avg_mshr_miss_latency::total 33714.906570                       # average SwapReq mshr miss latency
system.cpu1.dcache.tags.pwrStateResidencyTicks::UNDEFINED 1963320706500                       # Cumulative time (in ticks) in various power states
system.cpu1.dcache.tags.tagsinuse           31.887299                       # Cycle average of tags in use
system.cpu1.dcache.tags.total_refs          187023557                       # Total number of references to valid blocks.
system.cpu1.dcache.tags.sampled_refs         33195052                       # Sample count of references to valid blocks.
system.cpu1.dcache.tags.avg_refs             5.634079                       # Average number of references to valid blocks.
system.cpu1.dcache.tags.warmup_cycle                0                       # Cycle when the warmup percentage was hit.
system.cpu1.dcache.tags.occ_blocks::.cpu1.data    31.887299                       # Average occupied blocks per requestor
system.cpu1.dcache.tags.occ_percent::.cpu1.data     0.996478                       # Average percentage of cache occupancy
system.cpu1.dcache.tags.occ_percent::total     0.996478                       # Average percentage of cache occupancy
system.cpu1.dcache.tags.occ_task_id_blocks::1024           30                       # Occupied blocks per task id
system.cpu1.dcache.tags.age_task_id_blocks_1024::1            5                       # Occupied blocks per task id
system.cpu1.dcache.tags.age_task_id_blocks_1024::2           25                       # Occupied blocks per task id
system.cpu1.dcache.tags.occ_task_id_percent::1024     0.937500                       # Percentage of cache occupancy per task id
system.cpu1.dcache.tags.tag_accesses        483869893                       # Number of tag accesses
system.cpu1.dcache.tags.data_accesses       483869893                       # Number of data accesses
system.cpu_clk_domain.clock                       500                       # Clock period in ticks
system.tol2bus.pwrStateResidencyTicks::UNDEFINED 1963320706500                       # Cumulative time (in ticks) in various power states
system.tol2bus.trans_dist::ReadResp          69961766                       # Transaction distribution
system.tol2bus.trans_dist::WritebackDirty     36718486                       # Transaction distribution
system.tol2bus.trans_dist::WritebackClean     57975835                       # Transaction distribution
system.tol2bus.trans_dist::CleanEvict       137950911                       # Transaction distribution
system.tol2bus.trans_dist::HardPFReq         43466353                       # Transaction distribution
system.tol2bus.trans_dist::HardPFResp              50                       # Transaction distribution
system.tol2bus.trans_dist::UpgradeReq          200357                       # Transaction distribution
system.tol2bus.trans_dist::SCUpgradeReq        111091                       # Transaction distribution
system.tol2bus.trans_dist::UpgradeResp         311448                       # Transaction distribution
system.tol2bus.trans_dist::SCUpgradeFailReq          290                       # Transaction distribution
system.tol2bus.trans_dist::UpgradeFailResp          290                       # Transaction distribution
system.tol2bus.trans_dist::ReadExReq          7760331                       # Transaction distribution
system.tol2bus.trans_dist::ReadExResp         7760332                       # Transaction distribution
system.tol2bus.trans_dist::ReadCleanReq      11133407                       # Transaction distribution
system.tol2bus.trans_dist::ReadSharedReq     58828357                       # Transaction distribution
system.tol2bus.trans_dist::InvalidateReq        30597                       # Transaction distribution
system.tol2bus.trans_dist::InvalidateResp        30597                       # Transaction distribution
system.tol2bus.pkt_count_system.cpu0.icache.mem_side::system.l2.cpu_side     14543487                       # Packet count per connected master and slave (bytes)
system.tol2bus.pkt_count_system.cpu0.dcache.mem_side::system.l2.cpu_side    100052703                       # Packet count per connected master and slave (bytes)
system.tol2bus.pkt_count_system.cpu1.icache.mem_side::system.l2.cpu_side     18854150                       # Packet count per connected master and slave (bytes)
system.tol2bus.pkt_count_system.cpu1.dcache.mem_side::system.l2.cpu_side     99276296                       # Packet count per connected master and slave (bytes)
system.tol2bus.pkt_count::total             232726636                       # Packet count per connected master and slave (bytes)
system.tol2bus.pkt_size_system.cpu0.icache.mem_side::system.l2.cpu_side    620489280                       # Cumulative packet size per connected master and slave (bytes)
system.tol2bus.pkt_size_system.cpu0.dcache.mem_side::system.l2.cpu_side   4248880512                       # Cumulative packet size per connected master and slave (bytes)
system.tol2bus.pkt_size_system.cpu1.icache.mem_side::system.l2.cpu_side    804421440                       # Cumulative packet size per connected master and slave (bytes)
system.tol2bus.pkt_size_system.cpu1.dcache.mem_side::system.l2.cpu_side   4216709952                       # Cumulative packet size per connected master and slave (bytes)
system.tol2bus.pkt_size::total             9890501184                       # Cumulative packet size per connected master and slave (bytes)
system.tol2bus.snoops                       199513912                       # Total snoops (count)
system.tol2bus.snoopTraffic                1144174592                       # Total snoop traffic (bytes)
system.tol2bus.snoop_fanout::samples        276817275                       # Request fanout histogram
system.tol2bus.snoop_fanout::mean            0.276854                       # Request fanout histogram
system.tol2bus.snoop_fanout::stdev           0.469732                       # Request fanout histogram
system.tol2bus.snoop_fanout::underflows             0      0.00%      0.00% # Request fanout histogram
system.tol2bus.snoop_fanout::0              203007730     73.34%     73.34% # Request fanout histogram
system.tol2bus.snoop_fanout::1               70981797     25.64%     98.98% # Request fanout histogram
system.tol2bus.snoop_fanout::2                2826968      1.02%    100.00% # Request fanout histogram
system.tol2bus.snoop_fanout::3                    780      0.00%    100.00% # Request fanout histogram
system.tol2bus.snoop_fanout::4                      0      0.00%    100.00% # Request fanout histogram
system.tol2bus.snoop_fanout::5                      0      0.00%    100.00% # Request fanout histogram
system.tol2bus.snoop_fanout::6                      0      0.00%    100.00% # Request fanout histogram
system.tol2bus.snoop_fanout::7                      0      0.00%    100.00% # Request fanout histogram
system.tol2bus.snoop_fanout::8                      0      0.00%    100.00% # Request fanout histogram
system.tol2bus.snoop_fanout::overflows              0      0.00%    100.00% # Request fanout histogram
system.tol2bus.snoop_fanout::min_value              0                       # Request fanout histogram
system.tol2bus.snoop_fanout::max_value              3                       # Request fanout histogram
system.tol2bus.snoop_fanout::total          276817275                       # Request fanout histogram
system.tol2bus.reqLayer0.occupancy       155077054009                       # Layer occupancy (ticks)
system.tol2bus.reqLayer0.utilization              7.9                       # Layer utilization (%)
system.tol2bus.respLayer1.occupancy       50227565319                       # Layer occupancy (ticks)
system.tol2bus.respLayer1.utilization             2.6                       # Layer utilization (%)
system.tol2bus.respLayer0.occupancy        7281520442                       # Layer occupancy (ticks)
system.tol2bus.respLayer0.utilization             0.4                       # Layer utilization (%)
system.tol2bus.respLayer3.occupancy       49876182838                       # Layer occupancy (ticks)
system.tol2bus.respLayer3.utilization             2.5                       # Layer utilization (%)
system.tol2bus.respLayer2.occupancy        9437089458                       # Layer occupancy (ticks)
system.tol2bus.respLayer2.utilization             0.5                       # Layer utilization (%)
system.tol2bus.snoopLayer0.occupancy            75544                       # Layer occupancy (ticks)
system.tol2bus.snoopLayer0.utilization            0.0                       # Layer utilization (%)

---------- End Simulation Statistics   ----------
