
---------- Begin Simulation Statistics ----------
final_tick                               873888441000                       # Number of ticks from beginning of simulation (restored from checkpoints and never reset)
host_inst_rate                                  95232                       # Simulator instruction rate (inst/s)
host_mem_usage                                 739556                       # Number of bytes of host memory used
host_op_rate                                    95539                       # Simulator op (including micro ops) rate (op/s)
host_seconds                                 10694.94                       # Real time elapsed on the host
host_tick_rate                               81710444                       # Simulator tick rate (ticks/s)
sim_freq                                 1000000000000                       # Frequency of simulated ticks
sim_insts                                  1018503155                       # Number of instructions simulated
sim_ops                                    1021784782                       # Number of ops (including micro ops) simulated
sim_seconds                                  0.873888                       # Number of seconds simulated
sim_ticks                                873888441000                       # Number of ticks simulated
system.cpu0.branchPred.BTBCorrect                   0                       # Number of correct BTB predictions (this stat may not work properly.
system.cpu0.branchPred.BTBHitPct            86.788853                       # BTB Hit Percentage
system.cpu0.branchPred.BTBHits              116370038                       # Number of BTB hits
system.cpu0.branchPred.BTBLookups           134084084                       # Number of BTB lookups
system.cpu0.branchPred.RASInCorrect                 0                       # Number of incorrect RAS predictions.
system.cpu0.branchPred.condIncorrect          8477330                       # Number of conditional branches incorrect
system.cpu0.branchPred.condPredicted        186788654                       # Number of conditional branches predicted
system.cpu0.branchPred.indirectHits          15557641                       # Number of indirect target hits.
system.cpu0.branchPred.indirectLookups       15715365                       # Number of indirect predictor lookups.
system.cpu0.branchPred.indirectMisses          157724                       # Number of indirect misses.
system.cpu0.branchPred.lookups              236906216                       # Number of BP lookups
system.cpu0.branchPred.usedRAS                      0                       # Number of times the RAS was used to get a target.
system.cpu0.branchPredindirectMispredicted      1666248                       # Number of mispredicted indirect branches.
system.cpu0.commit.amos                        819885                       # Number of atomic instructions committed
system.cpu0.commit.branchMispredicts          5724099                       # The number of times a branch was mispredicted
system.cpu0.commit.branches                 221014725                       # Number of branches committed
system.cpu0.commit.bw_lim_events             22692311                       # number cycles where commit BW limit reached
system.cpu0.commit.commitNonSpecStalls        2466179                       # The number of times commit has been forced to stall to communicate backwards
system.cpu0.commit.commitSquashedInsts       52672852                       # The number of squashed insts skipped by commit
system.cpu0.commit.committedInsts           892404889                       # Number of instructions committed
system.cpu0.commit.committedOps             893226980                       # Number of ops (including micro ops) committed
system.cpu0.commit.committed_per_cycle::samples   1595752370                       # Number of insts commited each cycle
system.cpu0.commit.committed_per_cycle::mean     0.559753                       # Number of insts commited each cycle
system.cpu0.commit.committed_per_cycle::stdev     1.287565                       # Number of insts commited each cycle
system.cpu0.commit.committed_per_cycle::underflows            0      0.00%      0.00% # Number of insts commited each cycle
system.cpu0.commit.committed_per_cycle::0   1149783839     72.05%     72.05% # Number of insts commited each cycle
system.cpu0.commit.committed_per_cycle::1    266213568     16.68%     88.74% # Number of insts commited each cycle
system.cpu0.commit.committed_per_cycle::2     67269520      4.22%     92.95% # Number of insts commited each cycle
system.cpu0.commit.committed_per_cycle::3     65779583      4.12%     97.07% # Number of insts commited each cycle
system.cpu0.commit.committed_per_cycle::4     14773899      0.93%     98.00% # Number of insts commited each cycle
system.cpu0.commit.committed_per_cycle::5      4505327      0.28%     98.28% # Number of insts commited each cycle
system.cpu0.commit.committed_per_cycle::6      1165357      0.07%     98.35% # Number of insts commited each cycle
system.cpu0.commit.committed_per_cycle::7      3568966      0.22%     98.58% # Number of insts commited each cycle
system.cpu0.commit.committed_per_cycle::8     22692311      1.42%    100.00% # Number of insts commited each cycle
system.cpu0.commit.committed_per_cycle::overflows            0      0.00%    100.00% # Number of insts commited each cycle
system.cpu0.commit.committed_per_cycle::min_value            0                       # Number of insts commited each cycle
system.cpu0.commit.committed_per_cycle::max_value            8                       # Number of insts commited each cycle
system.cpu0.commit.committed_per_cycle::total   1595752370                       # Number of insts commited each cycle
system.cpu0.commit.fp_insts                        50                       # Number of committed floating point instructions.
system.cpu0.commit.function_calls            18341131                       # Number of function calls committed.
system.cpu0.commit.int_insts                863515311                       # Number of committed integer instructions.
system.cpu0.commit.loads                    280412605                       # Number of loads committed
system.cpu0.commit.membars                    1641845                       # Number of memory barriers committed
system.cpu0.commit.op_class_0::No_OpClass      1641851      0.18%      0.18% # Class of committed instruction
system.cpu0.commit.op_class_0::IntAlu       491117705     54.98%     55.17% # Class of committed instruction
system.cpu0.commit.op_class_0::IntMult        7835016      0.88%     56.04% # Class of committed instruction
system.cpu0.commit.op_class_0::IntDiv         1638713      0.18%     56.23% # Class of committed instruction
system.cpu0.commit.op_class_0::FloatAdd             0      0.00%     56.23% # Class of committed instruction
system.cpu0.commit.op_class_0::FloatCmp             4      0.00%     56.23% # Class of committed instruction
system.cpu0.commit.op_class_0::FloatCvt            12      0.00%     56.23% # Class of committed instruction
system.cpu0.commit.op_class_0::FloatMult            0      0.00%     56.23% # Class of committed instruction
system.cpu0.commit.op_class_0::FloatMultAcc            0      0.00%     56.23% # Class of committed instruction
system.cpu0.commit.op_class_0::FloatDiv             2      0.00%     56.23% # Class of committed instruction
system.cpu0.commit.op_class_0::FloatMisc            4      0.00%     56.23% # Class of committed instruction
system.cpu0.commit.op_class_0::FloatSqrt            0      0.00%     56.23% # Class of committed instruction
system.cpu0.commit.op_class_0::SimdAdd              0      0.00%     56.23% # Class of committed instruction
system.cpu0.commit.op_class_0::SimdAddAcc            0      0.00%     56.23% # Class of committed instruction
system.cpu0.commit.op_class_0::SimdAlu              0      0.00%     56.23% # Class of committed instruction
system.cpu0.commit.op_class_0::SimdCmp              0      0.00%     56.23% # Class of committed instruction
system.cpu0.commit.op_class_0::SimdCvt              0      0.00%     56.23% # Class of committed instruction
system.cpu0.commit.op_class_0::SimdMisc             0      0.00%     56.23% # Class of committed instruction
system.cpu0.commit.op_class_0::SimdMult             0      0.00%     56.23% # Class of committed instruction
system.cpu0.commit.op_class_0::SimdMultAcc            0      0.00%     56.23% # Class of committed instruction
system.cpu0.commit.op_class_0::SimdShift            0      0.00%     56.23% # Class of committed instruction
system.cpu0.commit.op_class_0::SimdShiftAcc            0      0.00%     56.23% # Class of committed instruction
system.cpu0.commit.op_class_0::SimdDiv              0      0.00%     56.23% # Class of committed instruction
system.cpu0.commit.op_class_0::SimdSqrt             0      0.00%     56.23% # Class of committed instruction
system.cpu0.commit.op_class_0::SimdFloatAdd            0      0.00%     56.23% # Class of committed instruction
system.cpu0.commit.op_class_0::SimdFloatAlu            0      0.00%     56.23% # Class of committed instruction
system.cpu0.commit.op_class_0::SimdFloatCmp            0      0.00%     56.23% # Class of committed instruction
system.cpu0.commit.op_class_0::SimdFloatCvt            0      0.00%     56.23% # Class of committed instruction
system.cpu0.commit.op_class_0::SimdFloatDiv            0      0.00%     56.23% # Class of committed instruction
system.cpu0.commit.op_class_0::SimdFloatMisc            0      0.00%     56.23% # Class of committed instruction
system.cpu0.commit.op_class_0::SimdFloatMult            0      0.00%     56.23% # Class of committed instruction
system.cpu0.commit.op_class_0::SimdFloatMultAcc            0      0.00%     56.23% # Class of committed instruction
system.cpu0.commit.op_class_0::SimdFloatSqrt            0      0.00%     56.23% # Class of committed instruction
system.cpu0.commit.op_class_0::SimdReduceAdd            0      0.00%     56.23% # Class of committed instruction
system.cpu0.commit.op_class_0::SimdReduceAlu            0      0.00%     56.23% # Class of committed instruction
system.cpu0.commit.op_class_0::SimdReduceCmp            0      0.00%     56.23% # Class of committed instruction
system.cpu0.commit.op_class_0::SimdFloatReduceAdd            0      0.00%     56.23% # Class of committed instruction
system.cpu0.commit.op_class_0::SimdFloatReduceCmp            0      0.00%     56.23% # Class of committed instruction
system.cpu0.commit.op_class_0::SimdAes              0      0.00%     56.23% # Class of committed instruction
system.cpu0.commit.op_class_0::SimdAesMix            0      0.00%     56.23% # Class of committed instruction
system.cpu0.commit.op_class_0::SimdSha1Hash            0      0.00%     56.23% # Class of committed instruction
system.cpu0.commit.op_class_0::SimdSha1Hash2            0      0.00%     56.23% # Class of committed instruction
system.cpu0.commit.op_class_0::SimdSha256Hash            0      0.00%     56.23% # Class of committed instruction
system.cpu0.commit.op_class_0::SimdSha256Hash2            0      0.00%     56.23% # Class of committed instruction
system.cpu0.commit.op_class_0::SimdShaSigma2            0      0.00%     56.23% # Class of committed instruction
system.cpu0.commit.op_class_0::SimdShaSigma3            0      0.00%     56.23% # Class of committed instruction
system.cpu0.commit.op_class_0::SimdPredAlu            0      0.00%     56.23% # Class of committed instruction
system.cpu0.commit.op_class_0::MemRead      281232482     31.48%     87.71% # Class of committed instruction
system.cpu0.commit.op_class_0::MemWrite     109761163     12.29%    100.00% # Class of committed instruction
system.cpu0.commit.op_class_0::FloatMemRead            8      0.00%    100.00% # Class of committed instruction
system.cpu0.commit.op_class_0::FloatMemWrite           20      0.00%    100.00% # Class of committed instruction
system.cpu0.commit.op_class_0::IprAccess            0      0.00%    100.00% # Class of committed instruction
system.cpu0.commit.op_class_0::InstPrefetch            0      0.00%    100.00% # Class of committed instruction
system.cpu0.commit.op_class_0::total        893226980                       # Class of committed instruction
system.cpu0.commit.refs                     390993673                       # Number of memory references committed
system.cpu0.commit.swp_count                        0                       # Number of s/w prefetches committed
system.cpu0.commit.vec_insts                        0                       # Number of committed Vector instructions.
system.cpu0.committedInsts                  892404889                       # Number of Instructions Simulated
system.cpu0.committedOps                    893226980                       # Number of Ops (including micro ops) Simulated
system.cpu0.cpi                              1.927094                       # CPI: Cycles Per Instruction
system.cpu0.cpi_total                        1.927094                       # CPI: Total CPI of All Threads
system.cpu0.decode.BlockedCycles            192693671                       # Number of cycles decode is blocked
system.cpu0.decode.BranchMispred              2758429                       # Number of times decode detected a branch misprediction
system.cpu0.decode.BranchResolved           115451466                       # Number of times decode resolved a branch
system.cpu0.decode.DecodedInsts             960440260                       # Number of instructions handled by decode
system.cpu0.decode.IdleCycles               736297248                       # Number of cycles decode is idle
system.cpu0.decode.RunCycles                669002788                       # Number of cycles decode is running
system.cpu0.decode.SquashCycles               5734776                       # Number of cycles decode is squashing
system.cpu0.decode.SquashedInsts              8374412                       # Number of squashed instructions handled by decode
system.cpu0.decode.UnblockCycles              2758497                       # Number of cycles decode is unblocking
system.cpu0.dtb.accesses                            0                       # DTB accesses
system.cpu0.dtb.hits                                0                       # DTB hits
system.cpu0.dtb.misses                              0                       # DTB misses
system.cpu0.dtb.read_accesses                       0                       # DTB read accesses
system.cpu0.dtb.read_hits                           0                       # DTB read hits
system.cpu0.dtb.read_misses                         0                       # DTB read misses
system.cpu0.dtb.write_accesses                      0                       # DTB write accesses
system.cpu0.dtb.write_hits                          0                       # DTB write hits
system.cpu0.dtb.write_misses                        0                       # DTB write misses
system.cpu0.fetch.Branches                  236906216                       # Number of branches that fetch encountered
system.cpu0.fetch.CacheLines                171139625                       # Number of cache lines fetched
system.cpu0.fetch.Cycles                    874582845                       # Number of cycles fetch has run and was not squashing or blocked
system.cpu0.fetch.IcacheSquashes              2786959                       # Number of outstanding Icache misses that were squashed
system.cpu0.fetch.IcacheWaitRetryStallCycles           63                       # Number of stall cycles due to full MSHR
system.cpu0.fetch.Insts                     980819170                       # Number of instructions fetch has processed
system.cpu0.fetch.MiscStallCycles                  31                       # Number of cycles fetch has spent waiting on interrupts, or bad addresses, or out of MSHRs
system.cpu0.fetch.PendingTrapStallCycles          110                       # Number of stall cycles due to pending traps
system.cpu0.fetch.SquashCycles               16976048                       # Number of cycles fetch has spent squashing
system.cpu0.fetch.branchRate                 0.137756                       # Number of branch fetches per cycle
system.cpu0.fetch.icacheStallCycles         723415907                       # Number of cycles fetch is stalled on an Icache miss
system.cpu0.fetch.predictedBranches         131927679                       # Number of branches that fetch has predicted taken
system.cpu0.fetch.rate                       0.570327                       # Number of inst fetches per cycle
system.cpu0.fetch.rateDist::samples        1606486980                       # Number of instructions fetched each cycle (Total)
system.cpu0.fetch.rateDist::mean             0.612361                       # Number of instructions fetched each cycle (Total)
system.cpu0.fetch.rateDist::stdev            0.903458                       # Number of instructions fetched each cycle (Total)
system.cpu0.fetch.rateDist::underflows              0      0.00%      0.00% # Number of instructions fetched each cycle (Total)
system.cpu0.fetch.rateDist::0               914559558     56.93%     56.93% # Number of instructions fetched each cycle (Total)
system.cpu0.fetch.rateDist::1               516019729     32.12%     89.05% # Number of instructions fetched each cycle (Total)
system.cpu0.fetch.rateDist::2                91696585      5.71%     94.76% # Number of instructions fetched each cycle (Total)
system.cpu0.fetch.rateDist::3                67479166      4.20%     98.96% # Number of instructions fetched each cycle (Total)
system.cpu0.fetch.rateDist::4                 8917176      0.56%     99.51% # Number of instructions fetched each cycle (Total)
system.cpu0.fetch.rateDist::5                 4021852      0.25%     99.76% # Number of instructions fetched each cycle (Total)
system.cpu0.fetch.rateDist::6                  455703      0.03%     99.79% # Number of instructions fetched each cycle (Total)
system.cpu0.fetch.rateDist::7                 3309507      0.21%    100.00% # Number of instructions fetched each cycle (Total)
system.cpu0.fetch.rateDist::8                   27704      0.00%    100.00% # Number of instructions fetched each cycle (Total)
system.cpu0.fetch.rateDist::overflows               0      0.00%    100.00% # Number of instructions fetched each cycle (Total)
system.cpu0.fetch.rateDist::min_value               0                       # Number of instructions fetched each cycle (Total)
system.cpu0.fetch.rateDist::max_value               8                       # Number of instructions fetched each cycle (Total)
system.cpu0.fetch.rateDist::total          1606486980                       # Number of instructions fetched each cycle (Total)
system.cpu0.fp_regfile_reads                       44                       # number of floating regfile reads
system.cpu0.fp_regfile_writes                      22                       # number of floating regfile writes
system.cpu0.idleCycles                      113261480                       # Total number of cycles that the CPU has spent unscheduled due to idling
system.cpu0.iew.branchMispredicts             5764434                       # Number of branch mispredicts detected at execute
system.cpu0.iew.exec_branches               226380931                       # Number of branches executed
system.cpu0.iew.exec_nop                            0                       # number of nop insts executed
system.cpu0.iew.exec_rate                    0.537776                       # Inst execution rate
system.cpu0.iew.exec_refs                   408510080                       # number of memory reference insts executed
system.cpu0.iew.exec_stores                 112633299                       # Number of stores executed
system.cpu0.iew.exec_swp                            0                       # number of swp insts executed
system.cpu0.iew.iewBlockCycles              160163204                       # Number of cycles IEW is blocking
system.cpu0.iew.iewDispLoadInsts            301348481                       # Number of dispatched load instructions
system.cpu0.iew.iewDispNonSpecInsts           1882852                       # Number of dispatched non-speculative instructions
system.cpu0.iew.iewDispSquashedInsts          1730873                       # Number of squashed instructions skipped by dispatch
system.cpu0.iew.iewDispStoreInsts           116680681                       # Number of dispatched store instructions
system.cpu0.iew.iewDispatchedInsts          945892494                       # Number of instructions dispatched to IQ
system.cpu0.iew.iewExecLoadInsts            295876781                       # Number of load instructions executed
system.cpu0.iew.iewExecSquashedInsts          5243192                       # Number of squashed instructions skipped in execute
system.cpu0.iew.iewExecutedInsts            924839629                       # Number of executed instructions
system.cpu0.iew.iewIQFullEvents                761586                       # Number of times the IQ has become full, causing a stall
system.cpu0.iew.iewIdleCycles                       0                       # Number of cycles IEW is idle
system.cpu0.iew.iewLSQFullEvents              3400777                       # Number of times the LSQ has become full, causing a stall
system.cpu0.iew.iewSquashCycles               5734776                       # Number of cycles IEW is squashing
system.cpu0.iew.iewUnblockCycles              5062035                       # Number of cycles IEW is unblocking
system.cpu0.iew.lsq.thread0.blockedLoads            0                       # Number of blocked loads due to partial load-store forwarding
system.cpu0.iew.lsq.thread0.cacheBlocked        73413                       # Number of times an access to memory failed due to the cache being blocked
system.cpu0.iew.lsq.thread0.forwLoads        13556340                       # Number of loads that had data forwarded from stores
system.cpu0.iew.lsq.thread0.ignoredResponses        14062                       # Number of memory responses ignored because the instruction is squashed
system.cpu0.iew.lsq.thread0.invAddrLoads            0                       # Number of loads ignored due to an invalid address
system.cpu0.iew.lsq.thread0.invAddrSwpfs            0                       # Number of software prefetches ignored due to an invalid address
system.cpu0.iew.lsq.thread0.memOrderViolation        11277                       # Number of memory ordering violations
system.cpu0.iew.lsq.thread0.rescheduledLoads      3623631                       # Number of loads that were rescheduled
system.cpu0.iew.lsq.thread0.squashedLoads     20935876                       # Number of loads squashed
system.cpu0.iew.lsq.thread0.squashedStores      6099613                       # Number of stores squashed
system.cpu0.iew.memOrderViolationEvents         11277                       # Number of memory order violations
system.cpu0.iew.predictedNotTakenIncorrect       761211                       # Number of branches that were predicted not taken incorrectly
system.cpu0.iew.predictedTakenIncorrect       5003223                       # Number of branches that were predicted taken incorrectly
system.cpu0.iew.wb_consumers                373691598                       # num instructions consuming a value
system.cpu0.iew.wb_count                    916842607                       # cumulative count of insts written-back
system.cpu0.iew.wb_fanout                    0.903125                       # average fanout of values written-back
system.cpu0.iew.wb_producers                337490172                       # num instructions producing a value
system.cpu0.iew.wb_rate                      0.533126                       # insts written-back per cycle
system.cpu0.iew.wb_sent                     916890182                       # cumulative count of insts sent to commit
system.cpu0.int_regfile_reads              1127877379                       # number of integer regfile reads
system.cpu0.int_regfile_writes              585466578                       # number of integer regfile writes
system.cpu0.ipc                              0.518916                       # IPC: Instructions Per Cycle
system.cpu0.ipc_total                        0.518916                       # IPC: Total IPC of All Threads
system.cpu0.iq.FU_type_0::No_OpClass          1643357      0.18%      0.18% # Type of FU issued
system.cpu0.iq.FU_type_0::IntAlu            506759779     54.49%     54.66% # Type of FU issued
system.cpu0.iq.FU_type_0::IntMult             7839426      0.84%     55.51% # Type of FU issued
system.cpu0.iq.FU_type_0::IntDiv              1639152      0.18%     55.68% # Type of FU issued
system.cpu0.iq.FU_type_0::FloatAdd                  0      0.00%     55.68% # Type of FU issued
system.cpu0.iq.FU_type_0::FloatCmp                  4      0.00%     55.68% # Type of FU issued
system.cpu0.iq.FU_type_0::FloatCvt                 12      0.00%     55.68% # Type of FU issued
system.cpu0.iq.FU_type_0::FloatMult                 0      0.00%     55.68% # Type of FU issued
system.cpu0.iq.FU_type_0::FloatMultAcc              0      0.00%     55.68% # Type of FU issued
system.cpu0.iq.FU_type_0::FloatDiv                  2      0.00%     55.68% # Type of FU issued
system.cpu0.iq.FU_type_0::FloatMisc                 4      0.00%     55.68% # Type of FU issued
system.cpu0.iq.FU_type_0::FloatSqrt                 0      0.00%     55.68% # Type of FU issued
system.cpu0.iq.FU_type_0::SimdAdd                   0      0.00%     55.68% # Type of FU issued
system.cpu0.iq.FU_type_0::SimdAddAcc                0      0.00%     55.68% # Type of FU issued
system.cpu0.iq.FU_type_0::SimdAlu                   0      0.00%     55.68% # Type of FU issued
system.cpu0.iq.FU_type_0::SimdCmp                   0      0.00%     55.68% # Type of FU issued
system.cpu0.iq.FU_type_0::SimdCvt                   0      0.00%     55.68% # Type of FU issued
system.cpu0.iq.FU_type_0::SimdMisc                  0      0.00%     55.68% # Type of FU issued
system.cpu0.iq.FU_type_0::SimdMult                  0      0.00%     55.68% # Type of FU issued
system.cpu0.iq.FU_type_0::SimdMultAcc               0      0.00%     55.68% # Type of FU issued
system.cpu0.iq.FU_type_0::SimdShift                 0      0.00%     55.68% # Type of FU issued
system.cpu0.iq.FU_type_0::SimdShiftAcc              0      0.00%     55.68% # Type of FU issued
system.cpu0.iq.FU_type_0::SimdDiv                   0      0.00%     55.68% # Type of FU issued
system.cpu0.iq.FU_type_0::SimdSqrt                  0      0.00%     55.68% # Type of FU issued
system.cpu0.iq.FU_type_0::SimdFloatAdd              0      0.00%     55.68% # Type of FU issued
system.cpu0.iq.FU_type_0::SimdFloatAlu              0      0.00%     55.68% # Type of FU issued
system.cpu0.iq.FU_type_0::SimdFloatCmp              0      0.00%     55.68% # Type of FU issued
system.cpu0.iq.FU_type_0::SimdFloatCvt              0      0.00%     55.68% # Type of FU issued
system.cpu0.iq.FU_type_0::SimdFloatDiv              0      0.00%     55.68% # Type of FU issued
system.cpu0.iq.FU_type_0::SimdFloatMisc             0      0.00%     55.68% # Type of FU issued
system.cpu0.iq.FU_type_0::SimdFloatMult             0      0.00%     55.68% # Type of FU issued
system.cpu0.iq.FU_type_0::SimdFloatMultAcc            0      0.00%     55.68% # Type of FU issued
system.cpu0.iq.FU_type_0::SimdFloatSqrt             0      0.00%     55.68% # Type of FU issued
system.cpu0.iq.FU_type_0::SimdReduceAdd             0      0.00%     55.68% # Type of FU issued
system.cpu0.iq.FU_type_0::SimdReduceAlu             0      0.00%     55.68% # Type of FU issued
system.cpu0.iq.FU_type_0::SimdReduceCmp             0      0.00%     55.68% # Type of FU issued
system.cpu0.iq.FU_type_0::SimdFloatReduceAdd            0      0.00%     55.68% # Type of FU issued
system.cpu0.iq.FU_type_0::SimdFloatReduceCmp            0      0.00%     55.68% # Type of FU issued
system.cpu0.iq.FU_type_0::SimdAes                   0      0.00%     55.68% # Type of FU issued
system.cpu0.iq.FU_type_0::SimdAesMix                0      0.00%     55.68% # Type of FU issued
system.cpu0.iq.FU_type_0::SimdSha1Hash              0      0.00%     55.68% # Type of FU issued
system.cpu0.iq.FU_type_0::SimdSha1Hash2             0      0.00%     55.68% # Type of FU issued
system.cpu0.iq.FU_type_0::SimdSha256Hash            0      0.00%     55.68% # Type of FU issued
system.cpu0.iq.FU_type_0::SimdSha256Hash2            0      0.00%     55.68% # Type of FU issued
system.cpu0.iq.FU_type_0::SimdShaSigma2             0      0.00%     55.68% # Type of FU issued
system.cpu0.iq.FU_type_0::SimdShaSigma3             0      0.00%     55.68% # Type of FU issued
system.cpu0.iq.FU_type_0::SimdPredAlu               0      0.00%     55.68% # Type of FU issued
system.cpu0.iq.FU_type_0::MemRead           298913403     32.14%     87.82% # Type of FU issued
system.cpu0.iq.FU_type_0::MemWrite          113287655     12.18%    100.00% # Type of FU issued
system.cpu0.iq.FU_type_0::FloatMemRead              8      0.00%    100.00% # Type of FU issued
system.cpu0.iq.FU_type_0::FloatMemWrite            20      0.00%    100.00% # Type of FU issued
system.cpu0.iq.FU_type_0::IprAccess                 0      0.00%    100.00% # Type of FU issued
system.cpu0.iq.FU_type_0::InstPrefetch              0      0.00%    100.00% # Type of FU issued
system.cpu0.iq.FU_type_0::total             930082822                       # Type of FU issued
system.cpu0.iq.fp_alu_accesses                     52                       # Number of floating point alu accesses
system.cpu0.iq.fp_inst_queue_reads                102                       # Number of floating instruction queue reads
system.cpu0.iq.fp_inst_queue_wakeup_accesses           50                       # Number of floating instruction queue wakeup accesses
system.cpu0.iq.fp_inst_queue_writes                50                       # Number of floating instruction queue writes
system.cpu0.iq.fu_busy_cnt                    1049607                       # FU busy when requested
system.cpu0.iq.fu_busy_rate                  0.001129                       # FU busy rate (busy events/executed inst)
system.cpu0.iq.fu_full::No_OpClass                  0      0.00%      0.00% # attempts to use FU when none available
system.cpu0.iq.fu_full::IntAlu                 178407     17.00%     17.00% # attempts to use FU when none available
system.cpu0.iq.fu_full::IntMult                     0      0.00%     17.00% # attempts to use FU when none available
system.cpu0.iq.fu_full::IntDiv                      0      0.00%     17.00% # attempts to use FU when none available
system.cpu0.iq.fu_full::FloatAdd                    0      0.00%     17.00% # attempts to use FU when none available
system.cpu0.iq.fu_full::FloatCmp                    0      0.00%     17.00% # attempts to use FU when none available
system.cpu0.iq.fu_full::FloatCvt                    0      0.00%     17.00% # attempts to use FU when none available
system.cpu0.iq.fu_full::FloatMult                   0      0.00%     17.00% # attempts to use FU when none available
system.cpu0.iq.fu_full::FloatMultAcc                0      0.00%     17.00% # attempts to use FU when none available
system.cpu0.iq.fu_full::FloatDiv                    0      0.00%     17.00% # attempts to use FU when none available
system.cpu0.iq.fu_full::FloatMisc                   0      0.00%     17.00% # attempts to use FU when none available
system.cpu0.iq.fu_full::FloatSqrt                   0      0.00%     17.00% # attempts to use FU when none available
system.cpu0.iq.fu_full::SimdAdd                     0      0.00%     17.00% # attempts to use FU when none available
system.cpu0.iq.fu_full::SimdAddAcc                  0      0.00%     17.00% # attempts to use FU when none available
system.cpu0.iq.fu_full::SimdAlu                     0      0.00%     17.00% # attempts to use FU when none available
system.cpu0.iq.fu_full::SimdCmp                     0      0.00%     17.00% # attempts to use FU when none available
system.cpu0.iq.fu_full::SimdCvt                     0      0.00%     17.00% # attempts to use FU when none available
system.cpu0.iq.fu_full::SimdMisc                    0      0.00%     17.00% # attempts to use FU when none available
system.cpu0.iq.fu_full::SimdMult                    0      0.00%     17.00% # attempts to use FU when none available
system.cpu0.iq.fu_full::SimdMultAcc                 0      0.00%     17.00% # attempts to use FU when none available
system.cpu0.iq.fu_full::SimdShift                   0      0.00%     17.00% # attempts to use FU when none available
system.cpu0.iq.fu_full::SimdShiftAcc                0      0.00%     17.00% # attempts to use FU when none available
system.cpu0.iq.fu_full::SimdDiv                     0      0.00%     17.00% # attempts to use FU when none available
system.cpu0.iq.fu_full::SimdSqrt                    0      0.00%     17.00% # attempts to use FU when none available
system.cpu0.iq.fu_full::SimdFloatAdd                0      0.00%     17.00% # attempts to use FU when none available
system.cpu0.iq.fu_full::SimdFloatAlu                0      0.00%     17.00% # attempts to use FU when none available
system.cpu0.iq.fu_full::SimdFloatCmp                0      0.00%     17.00% # attempts to use FU when none available
system.cpu0.iq.fu_full::SimdFloatCvt                0      0.00%     17.00% # attempts to use FU when none available
system.cpu0.iq.fu_full::SimdFloatDiv                0      0.00%     17.00% # attempts to use FU when none available
system.cpu0.iq.fu_full::SimdFloatMisc               0      0.00%     17.00% # attempts to use FU when none available
system.cpu0.iq.fu_full::SimdFloatMult               0      0.00%     17.00% # attempts to use FU when none available
system.cpu0.iq.fu_full::SimdFloatMultAcc            0      0.00%     17.00% # attempts to use FU when none available
system.cpu0.iq.fu_full::SimdFloatSqrt               0      0.00%     17.00% # attempts to use FU when none available
system.cpu0.iq.fu_full::SimdReduceAdd               0      0.00%     17.00% # attempts to use FU when none available
system.cpu0.iq.fu_full::SimdReduceAlu               0      0.00%     17.00% # attempts to use FU when none available
system.cpu0.iq.fu_full::SimdReduceCmp               0      0.00%     17.00% # attempts to use FU when none available
system.cpu0.iq.fu_full::SimdFloatReduceAdd            0      0.00%     17.00% # attempts to use FU when none available
system.cpu0.iq.fu_full::SimdFloatReduceCmp            0      0.00%     17.00% # attempts to use FU when none available
system.cpu0.iq.fu_full::SimdAes                     0      0.00%     17.00% # attempts to use FU when none available
system.cpu0.iq.fu_full::SimdAesMix                  0      0.00%     17.00% # attempts to use FU when none available
system.cpu0.iq.fu_full::SimdSha1Hash                0      0.00%     17.00% # attempts to use FU when none available
system.cpu0.iq.fu_full::SimdSha1Hash2               0      0.00%     17.00% # attempts to use FU when none available
system.cpu0.iq.fu_full::SimdSha256Hash              0      0.00%     17.00% # attempts to use FU when none available
system.cpu0.iq.fu_full::SimdSha256Hash2             0      0.00%     17.00% # attempts to use FU when none available
system.cpu0.iq.fu_full::SimdShaSigma2               0      0.00%     17.00% # attempts to use FU when none available
system.cpu0.iq.fu_full::SimdShaSigma3               0      0.00%     17.00% # attempts to use FU when none available
system.cpu0.iq.fu_full::SimdPredAlu                 0      0.00%     17.00% # attempts to use FU when none available
system.cpu0.iq.fu_full::MemRead                759622     72.37%     89.37% # attempts to use FU when none available
system.cpu0.iq.fu_full::MemWrite               111576     10.63%    100.00% # attempts to use FU when none available
system.cpu0.iq.fu_full::FloatMemRead                0      0.00%    100.00% # attempts to use FU when none available
system.cpu0.iq.fu_full::FloatMemWrite               2      0.00%    100.00% # attempts to use FU when none available
system.cpu0.iq.fu_full::IprAccess                   0      0.00%    100.00% # attempts to use FU when none available
system.cpu0.iq.fu_full::InstPrefetch                0      0.00%    100.00% # attempts to use FU when none available
system.cpu0.iq.int_alu_accesses             929489020                       # Number of integer alu accesses
system.cpu0.iq.int_inst_queue_reads        3467767284                       # Number of integer instruction queue reads
system.cpu0.iq.int_inst_queue_wakeup_accesses    916842557                       # Number of integer instruction queue wakeup accesses
system.cpu0.iq.int_inst_queue_writes        998568047                       # Number of integer instruction queue writes
system.cpu0.iq.iqInstsAdded                 940240750                       # Number of instructions added to the IQ (excludes non-spec)
system.cpu0.iq.iqInstsIssued                930082822                       # Number of instructions issued
system.cpu0.iq.iqNonSpecInstsAdded            5651744                       # Number of non-speculative instructions added to the IQ
system.cpu0.iq.iqSquashedInstsExamined       52665510                       # Number of squashed instructions iterated over during squash; mainly for profiling
system.cpu0.iq.iqSquashedInstsIssued            65156                       # Number of squashed instructions issued
system.cpu0.iq.iqSquashedNonSpecRemoved       3185565                       # Number of squashed non-spec instructions that were removed
system.cpu0.iq.iqSquashedOperandsExamined     30288631                       # Number of squashed operands that are examined and possibly removed from graph
system.cpu0.iq.issued_per_cycle::samples   1606486980                       # Number of insts issued each cycle
system.cpu0.iq.issued_per_cycle::mean        0.578954                       # Number of insts issued each cycle
system.cpu0.iq.issued_per_cycle::stdev       0.798842                       # Number of insts issued each cycle
system.cpu0.iq.issued_per_cycle::underflows            0      0.00%      0.00% # Number of insts issued each cycle
system.cpu0.iq.issued_per_cycle::0          924719838     57.56%     57.56% # Number of insts issued each cycle
system.cpu0.iq.issued_per_cycle::1          487194148     30.33%     87.89% # Number of insts issued each cycle
system.cpu0.iq.issued_per_cycle::2          151683143      9.44%     97.33% # Number of insts issued each cycle
system.cpu0.iq.issued_per_cycle::3           34416946      2.14%     99.47% # Number of insts issued each cycle
system.cpu0.iq.issued_per_cycle::4            7149944      0.45%     99.92% # Number of insts issued each cycle
system.cpu0.iq.issued_per_cycle::5             635102      0.04%     99.96% # Number of insts issued each cycle
system.cpu0.iq.issued_per_cycle::6             387043      0.02%     99.98% # Number of insts issued each cycle
system.cpu0.iq.issued_per_cycle::7             232522      0.01%    100.00% # Number of insts issued each cycle
system.cpu0.iq.issued_per_cycle::8              68294      0.00%    100.00% # Number of insts issued each cycle
system.cpu0.iq.issued_per_cycle::overflows            0      0.00%    100.00% # Number of insts issued each cycle
system.cpu0.iq.issued_per_cycle::min_value            0                       # Number of insts issued each cycle
system.cpu0.iq.issued_per_cycle::max_value            8                       # Number of insts issued each cycle
system.cpu0.iq.issued_per_cycle::total     1606486980                       # Number of insts issued each cycle
system.cpu0.iq.rate                          0.540825                       # Inst issue rate
system.cpu0.iq.vec_alu_accesses                     0                       # Number of vector alu accesses
system.cpu0.iq.vec_inst_queue_reads                 0                       # Number of vector instruction queue reads
system.cpu0.iq.vec_inst_queue_wakeup_accesses            0                       # Number of vector instruction queue wakeup accesses
system.cpu0.iq.vec_inst_queue_writes                0                       # Number of vector instruction queue writes
system.cpu0.itb.accesses                            0                       # DTB accesses
system.cpu0.itb.hits                                0                       # DTB hits
system.cpu0.itb.misses                              0                       # DTB misses
system.cpu0.itb.read_accesses                       0                       # DTB read accesses
system.cpu0.itb.read_hits                           0                       # DTB read hits
system.cpu0.itb.read_misses                         0                       # DTB read misses
system.cpu0.itb.write_accesses                      0                       # DTB write accesses
system.cpu0.itb.write_hits                          0                       # DTB write hits
system.cpu0.itb.write_misses                        0                       # DTB write misses
system.cpu0.memDep0.conflictingLoads         16708349                       # Number of conflicting loads.
system.cpu0.memDep0.conflictingStores         2654396                       # Number of conflicting stores.
system.cpu0.memDep0.insertedLoads           301348481                       # Number of loads inserted to the mem dependence unit.
system.cpu0.memDep0.insertedStores          116680681                       # Number of stores inserted to the mem dependence unit.
system.cpu0.misc_regfile_reads                   1517                       # number of misc regfile reads
system.cpu0.misc_regfile_writes                    22                       # number of misc regfile writes
system.cpu0.numCycles                      1719748460                       # number of cpu cycles simulated
system.cpu0.numWorkItemsCompleted                   0                       # number of work items this cpu completed
system.cpu0.numWorkItemsStarted                     0                       # number of work items this cpu started
system.cpu0.quiesceCycles                    28029147                       # Total number of cycles that CPU has spent quiesced or waiting for an interrupt
system.cpu0.rename.BlockCycles              169519448                       # Number of cycles rename is blocking
system.cpu0.rename.CommittedMaps            569160432                       # Number of HB maps that are committed
system.cpu0.rename.IQFullEvents               4101709                       # Number of times rename has blocked due to IQ full
system.cpu0.rename.IdleCycles               743107528                       # Number of cycles rename is idle
system.cpu0.rename.LQFullEvents               8836895                       # Number of times rename has blocked due to LQ full
system.cpu0.rename.ROBFullEvents                 6702                       # Number of times rename has blocked due to ROB full
system.cpu0.rename.RenameLookups           1163302303                       # Number of register rename lookups that rename has made
system.cpu0.rename.RenamedInsts             953926289                       # Number of instructions processed by rename
system.cpu0.rename.RenamedOperands          611451400                       # Number of destination operands rename has renamed
system.cpu0.rename.RunCycles                663905072                       # Number of cycles rename is running
system.cpu0.rename.SQFullEvents              10252820                       # Number of times rename has blocked due to SQ full
system.cpu0.rename.SquashCycles               5734776                       # Number of cycles rename is squashing
system.cpu0.rename.UnblockCycles             24096160                       # Number of cycles rename is unblocking
system.cpu0.rename.UndoneMaps                42290963                       # Number of HB maps that are undone due to squashing
system.cpu0.rename.fp_rename_lookups               44                       # Number of floating rename lookups
system.cpu0.rename.int_rename_lookups      1163302259                       # Number of integer rename lookups
system.cpu0.rename.serializeStallCycles        123996                       # count of cycles rename stalled for serializing inst
system.cpu0.rename.serializingInsts              4616                       # count of serializing insts renamed
system.cpu0.rename.skidInsts                 10611051                       # count of insts added to the skid buffer
system.cpu0.rename.tempSerializingInsts          4568                       # count of temporary serializing insts renamed
system.cpu0.rob.rob_reads                  2518940755                       # The number of ROB reads
system.cpu0.rob.rob_writes                 1902540026                       # The number of ROB writes
system.cpu0.timesIdled                       24916600                       # Number of times that the entire CPU went into an idle state and unscheduled itself
system.cpu0.workload.numSyscalls                 1484                       # Number of system calls
system.cpu1.branchPred.BTBCorrect                   0                       # Number of correct BTB predictions (this stat may not work properly.
system.cpu1.branchPred.BTBHitPct            84.256046                       # BTB Hit Percentage
system.cpu1.branchPred.BTBHits               10652566                       # Number of BTB hits
system.cpu1.branchPred.BTBLookups            12643088                       # Number of BTB lookups
system.cpu1.branchPred.RASInCorrect                 0                       # Number of incorrect RAS predictions.
system.cpu1.branchPred.condIncorrect          2834726                       # Number of conditional branches incorrect
system.cpu1.branchPred.condPredicted         17640067                       # Number of conditional branches predicted
system.cpu1.branchPred.indirectHits            249912                       # Number of indirect target hits.
system.cpu1.branchPred.indirectLookups         357717                       # Number of indirect predictor lookups.
system.cpu1.branchPred.indirectMisses          107805                       # Number of indirect misses.
system.cpu1.branchPred.lookups               20148189                       # Number of BP lookups
system.cpu1.branchPred.usedRAS                      0                       # Number of times the RAS was used to get a target.
system.cpu1.branchPredindirectMispredicted        25359                       # Number of mispredicted indirect branches.
system.cpu1.commit.amos                        819631                       # Number of atomic instructions committed
system.cpu1.commit.branchMispredicts          1980057                       # The number of times a branch was mispredicted
system.cpu1.commit.branches                  10299454                       # Number of branches committed
system.cpu1.commit.bw_lim_events               728437                       # number cycles where commit BW limit reached
system.cpu1.commit.commitNonSpecStalls        2459608                       # The number of times commit has been forced to stall to communicate backwards
system.cpu1.commit.commitSquashedInsts       29063124                       # The number of squashed insts skipped by commit
system.cpu1.commit.committedInsts            41844264                       # Number of instructions committed
system.cpu1.commit.committedOps              42664103                       # Number of ops (including micro ops) committed
system.cpu1.commit.committed_per_cycle::samples    233005461                       # Number of insts commited each cycle
system.cpu1.commit.committed_per_cycle::mean     0.183103                       # Number of insts commited each cycle
system.cpu1.commit.committed_per_cycle::stdev     0.775576                       # Number of insts commited each cycle
system.cpu1.commit.committed_per_cycle::underflows            0      0.00%      0.00% # Number of insts commited each cycle
system.cpu1.commit.committed_per_cycle::0    213295033     91.54%     91.54% # Number of insts commited each cycle
system.cpu1.commit.committed_per_cycle::1      9718363      4.17%     95.71% # Number of insts commited each cycle
system.cpu1.commit.committed_per_cycle::2      3931323      1.69%     97.40% # Number of insts commited each cycle
system.cpu1.commit.committed_per_cycle::3      3745739      1.61%     99.01% # Number of insts commited each cycle
system.cpu1.commit.committed_per_cycle::4       697847      0.30%     99.31% # Number of insts commited each cycle
system.cpu1.commit.committed_per_cycle::5       201698      0.09%     99.39% # Number of insts commited each cycle
system.cpu1.commit.committed_per_cycle::6       590644      0.25%     99.65% # Number of insts commited each cycle
system.cpu1.commit.committed_per_cycle::7        96377      0.04%     99.69% # Number of insts commited each cycle
system.cpu1.commit.committed_per_cycle::8       728437      0.31%    100.00% # Number of insts commited each cycle
system.cpu1.commit.committed_per_cycle::overflows            0      0.00%    100.00% # Number of insts commited each cycle
system.cpu1.commit.committed_per_cycle::min_value            0                       # Number of insts commited each cycle
system.cpu1.commit.committed_per_cycle::max_value            8                       # Number of insts commited each cycle
system.cpu1.commit.committed_per_cycle::total    233005461                       # Number of insts commited each cycle
system.cpu1.commit.fp_insts                        12                       # Number of committed floating point instructions.
system.cpu1.commit.function_calls              317296                       # Number of function calls committed.
system.cpu1.commit.int_insts                 40179062                       # Number of committed integer instructions.
system.cpu1.commit.loads                     11552284                       # Number of loads committed
system.cpu1.commit.membars                    1639365                       # Number of memory barriers committed
system.cpu1.commit.op_class_0::No_OpClass      1639365      3.84%      3.84% # Class of committed instruction
system.cpu1.commit.op_class_0::IntAlu        24987204     58.57%     62.41% # Class of committed instruction
system.cpu1.commit.op_class_0::IntMult             43      0.00%     62.41% # Class of committed instruction
system.cpu1.commit.op_class_0::IntDiv              86      0.00%     62.41% # Class of committed instruction
system.cpu1.commit.op_class_0::FloatAdd             0      0.00%     62.41% # Class of committed instruction
system.cpu1.commit.op_class_0::FloatCmp             0      0.00%     62.41% # Class of committed instruction
system.cpu1.commit.op_class_0::FloatCvt             0      0.00%     62.41% # Class of committed instruction
system.cpu1.commit.op_class_0::FloatMult            0      0.00%     62.41% # Class of committed instruction
system.cpu1.commit.op_class_0::FloatMultAcc            0      0.00%     62.41% # Class of committed instruction
system.cpu1.commit.op_class_0::FloatDiv             0      0.00%     62.41% # Class of committed instruction
system.cpu1.commit.op_class_0::FloatMisc            0      0.00%     62.41% # Class of committed instruction
system.cpu1.commit.op_class_0::FloatSqrt            0      0.00%     62.41% # Class of committed instruction
system.cpu1.commit.op_class_0::SimdAdd              0      0.00%     62.41% # Class of committed instruction
system.cpu1.commit.op_class_0::SimdAddAcc            0      0.00%     62.41% # Class of committed instruction
system.cpu1.commit.op_class_0::SimdAlu              0      0.00%     62.41% # Class of committed instruction
system.cpu1.commit.op_class_0::SimdCmp              0      0.00%     62.41% # Class of committed instruction
system.cpu1.commit.op_class_0::SimdCvt              0      0.00%     62.41% # Class of committed instruction
system.cpu1.commit.op_class_0::SimdMisc             0      0.00%     62.41% # Class of committed instruction
system.cpu1.commit.op_class_0::SimdMult             0      0.00%     62.41% # Class of committed instruction
system.cpu1.commit.op_class_0::SimdMultAcc            0      0.00%     62.41% # Class of committed instruction
system.cpu1.commit.op_class_0::SimdShift            0      0.00%     62.41% # Class of committed instruction
system.cpu1.commit.op_class_0::SimdShiftAcc            0      0.00%     62.41% # Class of committed instruction
system.cpu1.commit.op_class_0::SimdDiv              0      0.00%     62.41% # Class of committed instruction
system.cpu1.commit.op_class_0::SimdSqrt             0      0.00%     62.41% # Class of committed instruction
system.cpu1.commit.op_class_0::SimdFloatAdd            0      0.00%     62.41% # Class of committed instruction
system.cpu1.commit.op_class_0::SimdFloatAlu            0      0.00%     62.41% # Class of committed instruction
system.cpu1.commit.op_class_0::SimdFloatCmp            0      0.00%     62.41% # Class of committed instruction
system.cpu1.commit.op_class_0::SimdFloatCvt            0      0.00%     62.41% # Class of committed instruction
system.cpu1.commit.op_class_0::SimdFloatDiv            0      0.00%     62.41% # Class of committed instruction
system.cpu1.commit.op_class_0::SimdFloatMisc            0      0.00%     62.41% # Class of committed instruction
system.cpu1.commit.op_class_0::SimdFloatMult            0      0.00%     62.41% # Class of committed instruction
system.cpu1.commit.op_class_0::SimdFloatMultAcc            0      0.00%     62.41% # Class of committed instruction
system.cpu1.commit.op_class_0::SimdFloatSqrt            0      0.00%     62.41% # Class of committed instruction
system.cpu1.commit.op_class_0::SimdReduceAdd            0      0.00%     62.41% # Class of committed instruction
system.cpu1.commit.op_class_0::SimdReduceAlu            0      0.00%     62.41% # Class of committed instruction
system.cpu1.commit.op_class_0::SimdReduceCmp            0      0.00%     62.41% # Class of committed instruction
system.cpu1.commit.op_class_0::SimdFloatReduceAdd            0      0.00%     62.41% # Class of committed instruction
system.cpu1.commit.op_class_0::SimdFloatReduceCmp            0      0.00%     62.41% # Class of committed instruction
system.cpu1.commit.op_class_0::SimdAes              0      0.00%     62.41% # Class of committed instruction
system.cpu1.commit.op_class_0::SimdAesMix            0      0.00%     62.41% # Class of committed instruction
system.cpu1.commit.op_class_0::SimdSha1Hash            0      0.00%     62.41% # Class of committed instruction
system.cpu1.commit.op_class_0::SimdSha1Hash2            0      0.00%     62.41% # Class of committed instruction
system.cpu1.commit.op_class_0::SimdSha256Hash            0      0.00%     62.41% # Class of committed instruction
system.cpu1.commit.op_class_0::SimdSha256Hash2            0      0.00%     62.41% # Class of committed instruction
system.cpu1.commit.op_class_0::SimdShaSigma2            0      0.00%     62.41% # Class of committed instruction
system.cpu1.commit.op_class_0::SimdShaSigma3            0      0.00%     62.41% # Class of committed instruction
system.cpu1.commit.op_class_0::SimdPredAlu            0      0.00%     62.41% # Class of committed instruction
system.cpu1.commit.op_class_0::MemRead       12371915     29.00%     91.41% # Class of committed instruction
system.cpu1.commit.op_class_0::MemWrite       3665478      8.59%    100.00% # Class of committed instruction
system.cpu1.commit.op_class_0::FloatMemRead            0      0.00%    100.00% # Class of committed instruction
system.cpu1.commit.op_class_0::FloatMemWrite           12      0.00%    100.00% # Class of committed instruction
system.cpu1.commit.op_class_0::IprAccess            0      0.00%    100.00% # Class of committed instruction
system.cpu1.commit.op_class_0::InstPrefetch            0      0.00%    100.00% # Class of committed instruction
system.cpu1.commit.op_class_0::total         42664103                       # Class of committed instruction
system.cpu1.commit.refs                      16037405                       # Number of memory references committed
system.cpu1.commit.swp_count                        0                       # Number of s/w prefetches committed
system.cpu1.commit.vec_insts                        0                       # Number of committed Vector instructions.
system.cpu1.committedInsts                   41844264                       # Number of Instructions Simulated
system.cpu1.committedOps                     42664103                       # Number of Ops (including micro ops) Simulated
system.cpu1.cpi                              5.697903                       # CPI: Cycles Per Instruction
system.cpu1.cpi_total                        5.697903                       # CPI: Total CPI of All Threads
system.cpu1.decode.BlockedCycles            178165901                       # Number of cycles decode is blocked
system.cpu1.decode.BranchMispred               858901                       # Number of times decode detected a branch misprediction
system.cpu1.decode.BranchResolved             9699127                       # Number of times decode resolved a branch
system.cpu1.decode.DecodedInsts              80089973                       # Number of instructions handled by decode
system.cpu1.decode.IdleCycles                16720817                       # Number of cycles decode is idle
system.cpu1.decode.RunCycles                 38692825                       # Number of cycles decode is running
system.cpu1.decode.SquashCycles               1981174                       # Number of cycles decode is squashing
system.cpu1.decode.SquashedInsts              1534966                       # Number of squashed instructions handled by decode
system.cpu1.decode.UnblockCycles              2274108                       # Number of cycles decode is unblocking
system.cpu1.dtb.accesses                            0                       # DTB accesses
system.cpu1.dtb.hits                                0                       # DTB hits
system.cpu1.dtb.misses                              0                       # DTB misses
system.cpu1.dtb.read_accesses                       0                       # DTB read accesses
system.cpu1.dtb.read_hits                           0                       # DTB read hits
system.cpu1.dtb.read_misses                         0                       # DTB read misses
system.cpu1.dtb.write_accesses                      0                       # DTB write accesses
system.cpu1.dtb.write_hits                          0                       # DTB write hits
system.cpu1.dtb.write_misses                        0                       # DTB write misses
system.cpu1.fetch.Branches                   20148189                       # Number of branches that fetch encountered
system.cpu1.fetch.CacheLines                 13368788                       # Number of cache lines fetched
system.cpu1.fetch.Cycles                    219812100                       # Number of cycles fetch has run and was not squashing or blocked
system.cpu1.fetch.IcacheSquashes               679252                       # Number of outstanding Icache misses that were squashed
system.cpu1.fetch.Insts                      91102456                       # Number of instructions fetch has processed
system.cpu1.fetch.MiscStallCycles                   1                       # Number of cycles fetch has spent waiting on interrupts, or bad addresses, or out of MSHRs
system.cpu1.fetch.SquashCycles                5671686                       # Number of cycles fetch has spent squashing
system.cpu1.fetch.branchRate                 0.084506                       # Number of branch fetches per cycle
system.cpu1.fetch.icacheStallCycles          15186881                       # Number of cycles fetch is stalled on an Icache miss
system.cpu1.fetch.predictedBranches          10902478                       # Number of branches that fetch has predicted taken
system.cpu1.fetch.rate                       0.382102                       # Number of inst fetches per cycle
system.cpu1.fetch.rateDist::samples         237834825                       # Number of instructions fetched each cycle (Total)
system.cpu1.fetch.rateDist::mean             0.395558                       # Number of instructions fetched each cycle (Total)
system.cpu1.fetch.rateDist::stdev            0.890484                       # Number of instructions fetched each cycle (Total)
system.cpu1.fetch.rateDist::underflows              0      0.00%      0.00% # Number of instructions fetched each cycle (Total)
system.cpu1.fetch.rateDist::0               182416069     76.70%     76.70% # Number of instructions fetched each cycle (Total)
system.cpu1.fetch.rateDist::1                32348278     13.60%     90.30% # Number of instructions fetched each cycle (Total)
system.cpu1.fetch.rateDist::2                14698286      6.18%     96.48% # Number of instructions fetched each cycle (Total)
system.cpu1.fetch.rateDist::3                 4747563      2.00%     98.48% # Number of instructions fetched each cycle (Total)
system.cpu1.fetch.rateDist::4                  730541      0.31%     98.78% # Number of instructions fetched each cycle (Total)
system.cpu1.fetch.rateDist::5                 2282759      0.96%     99.74% # Number of instructions fetched each cycle (Total)
system.cpu1.fetch.rateDist::6                  552256      0.23%     99.98% # Number of instructions fetched each cycle (Total)
system.cpu1.fetch.rateDist::7                   32136      0.01%     99.99% # Number of instructions fetched each cycle (Total)
system.cpu1.fetch.rateDist::8                   26937      0.01%    100.00% # Number of instructions fetched each cycle (Total)
system.cpu1.fetch.rateDist::overflows               0      0.00%    100.00% # Number of instructions fetched each cycle (Total)
system.cpu1.fetch.rateDist::min_value               0                       # Number of instructions fetched each cycle (Total)
system.cpu1.fetch.rateDist::max_value               8                       # Number of instructions fetched each cycle (Total)
system.cpu1.fetch.rateDist::total           237834825                       # Number of instructions fetched each cycle (Total)
system.cpu1.fp_regfile_reads                       12                       # number of floating regfile reads
system.cpu1.idleCycles                         589721                       # Total number of cycles that the CPU has spent unscheduled due to idling
system.cpu1.iew.branchMispredicts             2020429                       # Number of branch mispredicts detected at execute
system.cpu1.iew.exec_branches                13343816                       # Number of branches executed
system.cpu1.iew.exec_nop                            0                       # number of nop insts executed
system.cpu1.iew.exec_rate                    0.219150                       # Inst execution rate
system.cpu1.iew.exec_refs                    18176766                       # number of memory reference insts executed
system.cpu1.iew.exec_stores                   5265163                       # Number of stores executed
system.cpu1.iew.exec_swp                            0                       # number of swp insts executed
system.cpu1.iew.iewBlockCycles              156633457                       # Number of cycles IEW is blocking
system.cpu1.iew.iewDispLoadInsts             19801415                       # Number of dispatched load instructions
system.cpu1.iew.iewDispNonSpecInsts           1969683                       # Number of dispatched non-speculative instructions
system.cpu1.iew.iewDispSquashedInsts          1240607                       # Number of squashed instructions skipped by dispatch
system.cpu1.iew.iewDispStoreInsts             8036288                       # Number of dispatched store instructions
system.cpu1.iew.iewDispatchedInsts           71718325                       # Number of instructions dispatched to IQ
system.cpu1.iew.iewExecLoadInsts             12911603                       # Number of load instructions executed
system.cpu1.iew.iewExecSquashedInsts          1744528                       # Number of squashed instructions skipped in execute
system.cpu1.iew.iewExecutedInsts             52250841                       # Number of executed instructions
system.cpu1.iew.iewIQFullEvents                702212                       # Number of times the IQ has become full, causing a stall
system.cpu1.iew.iewIdleCycles                       0                       # Number of cycles IEW is idle
system.cpu1.iew.iewLSQFullEvents              2565381                       # Number of times the LSQ has become full, causing a stall
system.cpu1.iew.iewSquashCycles               1981174                       # Number of cycles IEW is squashing
system.cpu1.iew.iewUnblockCycles              4128234                       # Number of cycles IEW is unblocking
system.cpu1.iew.lsq.thread0.blockedLoads            0                       # Number of blocked loads due to partial load-store forwarding
system.cpu1.iew.lsq.thread0.cacheBlocked        39913                       # Number of times an access to memory failed due to the cache being blocked
system.cpu1.iew.lsq.thread0.forwLoads          195920                       # Number of loads that had data forwarded from stores
system.cpu1.iew.lsq.thread0.ignoredResponses        12203                       # Number of memory responses ignored because the instruction is squashed
system.cpu1.iew.lsq.thread0.invAddrLoads            0                       # Number of loads ignored due to an invalid address
system.cpu1.iew.lsq.thread0.invAddrSwpfs            0                       # Number of software prefetches ignored due to an invalid address
system.cpu1.iew.lsq.thread0.memOrderViolation         2288                       # Number of memory ordering violations
system.cpu1.iew.lsq.thread0.rescheduledLoads         1907                       # Number of loads that were rescheduled
system.cpu1.iew.lsq.thread0.squashedLoads      8249131                       # Number of loads squashed
system.cpu1.iew.lsq.thread0.squashedStores      3551167                       # Number of stores squashed
system.cpu1.iew.memOrderViolationEvents          2288                       # Number of memory order violations
system.cpu1.iew.predictedNotTakenIncorrect       630226                       # Number of branches that were predicted not taken incorrectly
system.cpu1.iew.predictedTakenIncorrect       1390203                       # Number of branches that were predicted taken incorrectly
system.cpu1.iew.wb_consumers                 26213758                       # num instructions consuming a value
system.cpu1.iew.wb_count                     51323854                       # cumulative count of insts written-back
system.cpu1.iew.wb_fanout                    0.785501                       # average fanout of values written-back
system.cpu1.iew.wb_producers                 20590935                       # num instructions producing a value
system.cpu1.iew.wb_rate                      0.215262                       # insts written-back per cycle
system.cpu1.iew.wb_sent                      51350240                       # cumulative count of insts sent to commit
system.cpu1.int_regfile_reads                67224978                       # number of integer regfile reads
system.cpu1.int_regfile_writes               32114012                       # number of integer regfile writes
system.cpu1.ipc                              0.175503                       # IPC: Instructions Per Cycle
system.cpu1.ipc_total                        0.175503                       # IPC: Total IPC of All Threads
system.cpu1.iq.FU_type_0::No_OpClass          1639561      3.04%      3.04% # Type of FU issued
system.cpu1.iq.FU_type_0::IntAlu             33587160     62.20%     65.24% # Type of FU issued
system.cpu1.iq.FU_type_0::IntMult                  56      0.00%     65.24% # Type of FU issued
system.cpu1.iq.FU_type_0::IntDiv                   86      0.00%     65.24% # Type of FU issued
system.cpu1.iq.FU_type_0::FloatAdd                  0      0.00%     65.24% # Type of FU issued
system.cpu1.iq.FU_type_0::FloatCmp                  0      0.00%     65.24% # Type of FU issued
system.cpu1.iq.FU_type_0::FloatCvt                  0      0.00%     65.24% # Type of FU issued
system.cpu1.iq.FU_type_0::FloatMult                 0      0.00%     65.24% # Type of FU issued
system.cpu1.iq.FU_type_0::FloatMultAcc              0      0.00%     65.24% # Type of FU issued
system.cpu1.iq.FU_type_0::FloatDiv                  0      0.00%     65.24% # Type of FU issued
system.cpu1.iq.FU_type_0::FloatMisc                 0      0.00%     65.24% # Type of FU issued
system.cpu1.iq.FU_type_0::FloatSqrt                 0      0.00%     65.24% # Type of FU issued
system.cpu1.iq.FU_type_0::SimdAdd                   0      0.00%     65.24% # Type of FU issued
system.cpu1.iq.FU_type_0::SimdAddAcc                0      0.00%     65.24% # Type of FU issued
system.cpu1.iq.FU_type_0::SimdAlu                   0      0.00%     65.24% # Type of FU issued
system.cpu1.iq.FU_type_0::SimdCmp                   0      0.00%     65.24% # Type of FU issued
system.cpu1.iq.FU_type_0::SimdCvt                   0      0.00%     65.24% # Type of FU issued
system.cpu1.iq.FU_type_0::SimdMisc                  0      0.00%     65.24% # Type of FU issued
system.cpu1.iq.FU_type_0::SimdMult                  0      0.00%     65.24% # Type of FU issued
system.cpu1.iq.FU_type_0::SimdMultAcc               0      0.00%     65.24% # Type of FU issued
system.cpu1.iq.FU_type_0::SimdShift                 0      0.00%     65.24% # Type of FU issued
system.cpu1.iq.FU_type_0::SimdShiftAcc              0      0.00%     65.24% # Type of FU issued
system.cpu1.iq.FU_type_0::SimdDiv                   0      0.00%     65.24% # Type of FU issued
system.cpu1.iq.FU_type_0::SimdSqrt                  0      0.00%     65.24% # Type of FU issued
system.cpu1.iq.FU_type_0::SimdFloatAdd              0      0.00%     65.24% # Type of FU issued
system.cpu1.iq.FU_type_0::SimdFloatAlu              0      0.00%     65.24% # Type of FU issued
system.cpu1.iq.FU_type_0::SimdFloatCmp              0      0.00%     65.24% # Type of FU issued
system.cpu1.iq.FU_type_0::SimdFloatCvt              0      0.00%     65.24% # Type of FU issued
system.cpu1.iq.FU_type_0::SimdFloatDiv              0      0.00%     65.24% # Type of FU issued
system.cpu1.iq.FU_type_0::SimdFloatMisc             0      0.00%     65.24% # Type of FU issued
system.cpu1.iq.FU_type_0::SimdFloatMult             0      0.00%     65.24% # Type of FU issued
system.cpu1.iq.FU_type_0::SimdFloatMultAcc            0      0.00%     65.24% # Type of FU issued
system.cpu1.iq.FU_type_0::SimdFloatSqrt             0      0.00%     65.24% # Type of FU issued
system.cpu1.iq.FU_type_0::SimdReduceAdd             0      0.00%     65.24% # Type of FU issued
system.cpu1.iq.FU_type_0::SimdReduceAlu             0      0.00%     65.24% # Type of FU issued
system.cpu1.iq.FU_type_0::SimdReduceCmp             0      0.00%     65.24% # Type of FU issued
system.cpu1.iq.FU_type_0::SimdFloatReduceAdd            0      0.00%     65.24% # Type of FU issued
system.cpu1.iq.FU_type_0::SimdFloatReduceCmp            0      0.00%     65.24% # Type of FU issued
system.cpu1.iq.FU_type_0::SimdAes                   0      0.00%     65.24% # Type of FU issued
system.cpu1.iq.FU_type_0::SimdAesMix                0      0.00%     65.24% # Type of FU issued
system.cpu1.iq.FU_type_0::SimdSha1Hash              0      0.00%     65.24% # Type of FU issued
system.cpu1.iq.FU_type_0::SimdSha1Hash2             0      0.00%     65.24% # Type of FU issued
system.cpu1.iq.FU_type_0::SimdSha256Hash            0      0.00%     65.24% # Type of FU issued
system.cpu1.iq.FU_type_0::SimdSha256Hash2            0      0.00%     65.24% # Type of FU issued
system.cpu1.iq.FU_type_0::SimdShaSigma2             0      0.00%     65.24% # Type of FU issued
system.cpu1.iq.FU_type_0::SimdShaSigma3             0      0.00%     65.24% # Type of FU issued
system.cpu1.iq.FU_type_0::SimdPredAlu               0      0.00%     65.24% # Type of FU issued
system.cpu1.iq.FU_type_0::MemRead            14178356     26.26%     91.50% # Type of FU issued
system.cpu1.iq.FU_type_0::MemWrite            4590138      8.50%    100.00% # Type of FU issued
system.cpu1.iq.FU_type_0::FloatMemRead              0      0.00%    100.00% # Type of FU issued
system.cpu1.iq.FU_type_0::FloatMemWrite            12      0.00%    100.00% # Type of FU issued
system.cpu1.iq.FU_type_0::IprAccess                 0      0.00%    100.00% # Type of FU issued
system.cpu1.iq.FU_type_0::InstPrefetch              0      0.00%    100.00% # Type of FU issued
system.cpu1.iq.FU_type_0::total              53995369                       # Type of FU issued
system.cpu1.iq.fp_alu_accesses                     14                       # Number of floating point alu accesses
system.cpu1.iq.fp_inst_queue_reads                 26                       # Number of floating instruction queue reads
system.cpu1.iq.fp_inst_queue_wakeup_accesses           12                       # Number of floating instruction queue wakeup accesses
system.cpu1.iq.fp_inst_queue_writes                12                       # Number of floating instruction queue writes
system.cpu1.iq.fu_busy_cnt                     927412                       # FU busy when requested
system.cpu1.iq.fu_busy_rate                  0.017176                       # FU busy rate (busy events/executed inst)
system.cpu1.iq.fu_full::No_OpClass                  0      0.00%      0.00% # attempts to use FU when none available
system.cpu1.iq.fu_full::IntAlu                 148690     16.03%     16.03% # attempts to use FU when none available
system.cpu1.iq.fu_full::IntMult                     0      0.00%     16.03% # attempts to use FU when none available
system.cpu1.iq.fu_full::IntDiv                      0      0.00%     16.03% # attempts to use FU when none available
system.cpu1.iq.fu_full::FloatAdd                    0      0.00%     16.03% # attempts to use FU when none available
system.cpu1.iq.fu_full::FloatCmp                    0      0.00%     16.03% # attempts to use FU when none available
system.cpu1.iq.fu_full::FloatCvt                    0      0.00%     16.03% # attempts to use FU when none available
system.cpu1.iq.fu_full::FloatMult                   0      0.00%     16.03% # attempts to use FU when none available
system.cpu1.iq.fu_full::FloatMultAcc                0      0.00%     16.03% # attempts to use FU when none available
system.cpu1.iq.fu_full::FloatDiv                    0      0.00%     16.03% # attempts to use FU when none available
system.cpu1.iq.fu_full::FloatMisc                   0      0.00%     16.03% # attempts to use FU when none available
system.cpu1.iq.fu_full::FloatSqrt                   0      0.00%     16.03% # attempts to use FU when none available
system.cpu1.iq.fu_full::SimdAdd                     0      0.00%     16.03% # attempts to use FU when none available
system.cpu1.iq.fu_full::SimdAddAcc                  0      0.00%     16.03% # attempts to use FU when none available
system.cpu1.iq.fu_full::SimdAlu                     0      0.00%     16.03% # attempts to use FU when none available
system.cpu1.iq.fu_full::SimdCmp                     0      0.00%     16.03% # attempts to use FU when none available
system.cpu1.iq.fu_full::SimdCvt                     0      0.00%     16.03% # attempts to use FU when none available
system.cpu1.iq.fu_full::SimdMisc                    0      0.00%     16.03% # attempts to use FU when none available
system.cpu1.iq.fu_full::SimdMult                    0      0.00%     16.03% # attempts to use FU when none available
system.cpu1.iq.fu_full::SimdMultAcc                 0      0.00%     16.03% # attempts to use FU when none available
system.cpu1.iq.fu_full::SimdShift                   0      0.00%     16.03% # attempts to use FU when none available
system.cpu1.iq.fu_full::SimdShiftAcc                0      0.00%     16.03% # attempts to use FU when none available
system.cpu1.iq.fu_full::SimdDiv                     0      0.00%     16.03% # attempts to use FU when none available
system.cpu1.iq.fu_full::SimdSqrt                    0      0.00%     16.03% # attempts to use FU when none available
system.cpu1.iq.fu_full::SimdFloatAdd                0      0.00%     16.03% # attempts to use FU when none available
system.cpu1.iq.fu_full::SimdFloatAlu                0      0.00%     16.03% # attempts to use FU when none available
system.cpu1.iq.fu_full::SimdFloatCmp                0      0.00%     16.03% # attempts to use FU when none available
system.cpu1.iq.fu_full::SimdFloatCvt                0      0.00%     16.03% # attempts to use FU when none available
system.cpu1.iq.fu_full::SimdFloatDiv                0      0.00%     16.03% # attempts to use FU when none available
system.cpu1.iq.fu_full::SimdFloatMisc               0      0.00%     16.03% # attempts to use FU when none available
system.cpu1.iq.fu_full::SimdFloatMult               0      0.00%     16.03% # attempts to use FU when none available
system.cpu1.iq.fu_full::SimdFloatMultAcc            0      0.00%     16.03% # attempts to use FU when none available
system.cpu1.iq.fu_full::SimdFloatSqrt               0      0.00%     16.03% # attempts to use FU when none available
system.cpu1.iq.fu_full::SimdReduceAdd               0      0.00%     16.03% # attempts to use FU when none available
system.cpu1.iq.fu_full::SimdReduceAlu               0      0.00%     16.03% # attempts to use FU when none available
system.cpu1.iq.fu_full::SimdReduceCmp               0      0.00%     16.03% # attempts to use FU when none available
system.cpu1.iq.fu_full::SimdFloatReduceAdd            0      0.00%     16.03% # attempts to use FU when none available
system.cpu1.iq.fu_full::SimdFloatReduceCmp            0      0.00%     16.03% # attempts to use FU when none available
system.cpu1.iq.fu_full::SimdAes                     0      0.00%     16.03% # attempts to use FU when none available
system.cpu1.iq.fu_full::SimdAesMix                  0      0.00%     16.03% # attempts to use FU when none available
system.cpu1.iq.fu_full::SimdSha1Hash                0      0.00%     16.03% # attempts to use FU when none available
system.cpu1.iq.fu_full::SimdSha1Hash2               0      0.00%     16.03% # attempts to use FU when none available
system.cpu1.iq.fu_full::SimdSha256Hash              0      0.00%     16.03% # attempts to use FU when none available
system.cpu1.iq.fu_full::SimdSha256Hash2             0      0.00%     16.03% # attempts to use FU when none available
system.cpu1.iq.fu_full::SimdShaSigma2               0      0.00%     16.03% # attempts to use FU when none available
system.cpu1.iq.fu_full::SimdShaSigma3               0      0.00%     16.03% # attempts to use FU when none available
system.cpu1.iq.fu_full::SimdPredAlu                 0      0.00%     16.03% # attempts to use FU when none available
system.cpu1.iq.fu_full::MemRead                681307     73.46%     89.50% # attempts to use FU when none available
system.cpu1.iq.fu_full::MemWrite                97413     10.50%    100.00% # attempts to use FU when none available
[...]
system.cpu1.dcache.WriteReq_mshr_miss_latency::.cpu1.data   1763023499                       # number of WriteReq MSHR miss cycles
system.cpu1.dcache.WriteReq_mshr_miss_latency::total   1763023499                       # number of WriteReq MSHR miss cycles
system.cpu1.dcache.WriteReq_mshr_miss_rate::.cpu1.data     0.026228                       # mshr miss rate for WriteReq accesses
system.cpu1.dcache.WriteReq_mshr_miss_rate::total     0.026228                       # mshr miss rate for WriteReq accesses
system.cpu1.dcache.WriteReq_avg_mshr_miss_latency::.cpu1.data 121663.342695                       # average WriteReq mshr miss latency
system.cpu1.dcache.WriteReq_avg_mshr_miss_latency::total 121663.342695                       # average WriteReq mshr miss latency
system.cpu1.dcache.LoadLockedReq_hits::.cpu1.data       215368                       # number of LoadLockedReq hits
system.cpu1.dcache.LoadLockedReq_hits::total       215368                       # number of LoadLockedReq hits
system.cpu1.dcache.LoadLockedReq_misses::.cpu1.data          956                       # number of LoadLockedReq misses
system.cpu1.dcache.LoadLockedReq_misses::total          956                       # number of LoadLockedReq misses
system.cpu1.dcache.LoadLockedReq_miss_latency::.cpu1.data     26347500                       # number of LoadLockedReq miss cycles
system.cpu1.dcache.LoadLockedReq_miss_latency::total     26347500                       # number of LoadLockedReq miss cycles
system.cpu1.dcache.LoadLockedReq_accesses::.cpu1.data       216324                       # number of LoadLockedReq accesses(hits+misses)
system.cpu1.dcache.LoadLockedReq_accesses::total       216324                       # number of LoadLockedReq accesses(hits+misses)
system.cpu1.dcache.LoadLockedReq_miss_rate::.cpu1.data     0.004419                       # miss rate for LoadLockedReq accesses
system.cpu1.dcache.LoadLockedReq_miss_rate::total     0.004419                       # miss rate for LoadLockedReq accesses
system.cpu1.dcache.LoadLockedReq_avg_miss_latency::.cpu1.data 27560.146444                       # average LoadLockedReq miss latency
system.cpu1.dcache.LoadLockedReq_avg_miss_latency::total 27560.146444                       # average LoadLockedReq miss latency
system.cpu1.dcache.LoadLockedReq_mshr_hits::.cpu1.data          220                       # number of LoadLockedReq MSHR hits
system.cpu1.dcache.LoadLockedReq_mshr_hits::total          220                       # number of LoadLockedReq MSHR hits
system.cpu1.dcache.LoadLockedReq_mshr_misses::.cpu1.data          736                       # number of LoadLockedReq MSHR misses
system.cpu1.dcache.LoadLockedReq_mshr_misses::total          736                       # number of LoadLockedReq MSHR misses
system.cpu1.dcache.LoadLockedReq_mshr_miss_latency::.cpu1.data     12500000                       # number of LoadLockedReq MSHR miss cycles
system.cpu1.dcache.LoadLockedReq_mshr_miss_latency::total     12500000                       # number of LoadLockedReq MSHR miss cycles
system.cpu1.dcache.LoadLockedReq_mshr_miss_rate::.cpu1.data     0.003402                       # mshr miss rate for LoadLockedReq accesses
system.cpu1.dcache.LoadLockedReq_mshr_miss_rate::total     0.003402                       # mshr miss rate for LoadLockedReq accesses
system.cpu1.dcache.LoadLockedReq_avg_mshr_miss_latency::.cpu1.data 16983.695652                       # average LoadLockedReq mshr miss latency
system.cpu1.dcache.LoadLockedReq_avg_mshr_miss_latency::total 16983.695652                       # average LoadLockedReq mshr miss latency
system.cpu1.dcache.StoreCondReq_hits::.cpu1.data       213484                       # number of StoreCondReq hits
system.cpu1.dcache.StoreCondReq_hits::total       213484                       # number of StoreCondReq hits
system.cpu1.dcache.StoreCondReq_misses::.cpu1.data         2419                       # number of StoreCondReq misses
system.cpu1.dcache.StoreCondReq_misses::total         2419                       # number of StoreCondReq misses
system.cpu1.dcache.StoreCondReq_miss_latency::.cpu1.data     44689000                       # number of StoreCondReq miss cycles
system.cpu1.dcache.StoreCondReq_miss_latency::total     44689000                       # number of StoreCondReq miss cycles
system.cpu1.dcache.StoreCondReq_accesses::.cpu1.data       215903                       # number of StoreCondReq accesses(hits+misses)
system.cpu1.dcache.StoreCondReq_accesses::total       215903                       # number of StoreCondReq accesses(hits+misses)
system.cpu1.dcache.StoreCondReq_miss_rate::.cpu1.data     0.011204                       # miss rate for StoreCondReq accesses
system.cpu1.dcache.StoreCondReq_miss_rate::total     0.011204                       # miss rate for StoreCondReq accesses
system.cpu1.dcache.StoreCondReq_avg_miss_latency::.cpu1.data 18474.162877                       # average StoreCondReq miss latency
system.cpu1.dcache.StoreCondReq_avg_miss_latency::total 18474.162877                       # average StoreCondReq miss latency
system.cpu1.dcache.StoreCondReq_mshr_misses::.cpu1.data         2408                       # number of StoreCondReq MSHR misses
system.cpu1.dcache.StoreCondReq_mshr_misses::total         2408                       # number of StoreCondReq MSHR misses
system.cpu1.dcache.StoreCondReq_mshr_miss_latency::.cpu1.data     42341000                       # number of StoreCondReq MSHR miss cycles
system.cpu1.dcache.StoreCondReq_mshr_miss_latency::total     42341000                       # number of StoreCondReq MSHR miss cycles
system.cpu1.dcache.StoreCondReq_mshr_miss_rate::.cpu1.data     0.011153                       # mshr miss rate for StoreCondReq accesses
system.cpu1.dcache.StoreCondReq_mshr_miss_rate::total     0.011153                       # mshr miss rate for StoreCondReq accesses
system.cpu1.dcache.StoreCondReq_avg_mshr_miss_latency::.cpu1.data 17583.471761                       # average StoreCondReq mshr miss latency
system.cpu1.dcache.StoreCondReq_avg_mshr_miss_latency::total 17583.471761                       # average StoreCondReq mshr miss latency
system.cpu1.dcache.StoreCondFailReq_miss_latency::.cpu1.data       727500                       # number of StoreCondFailReq miss cycles
system.cpu1.dcache.StoreCondFailReq_miss_latency::total       727500                       # number of StoreCondFailReq miss cycles
system.cpu1.dcache.StoreCondFailReq_avg_miss_latency::.cpu1.data          inf                       # average StoreCondFailReq miss latency
system.cpu1.dcache.StoreCondFailReq_avg_miss_latency::total          inf                       # average StoreCondFailReq miss latency
system.cpu1.dcache.StoreCondFailReq_mshr_miss_latency::.cpu1.data       667500                       # number of StoreCondFailReq MSHR miss cycles
system.cpu1.dcache.StoreCondFailReq_mshr_miss_latency::total       667500                       # number of StoreCondFailReq MSHR miss cycles
system.cpu1.dcache.StoreCondFailReq_avg_mshr_miss_latency::.cpu1.data          inf                       # average StoreCondFailReq mshr miss latency
system.cpu1.dcache.StoreCondFailReq_avg_mshr_miss_latency::total          inf                       # average StoreCondFailReq mshr miss latency
system.cpu1.dcache.SwapReq_hits::.cpu1.data          367                       # number of SwapReq hits
system.cpu1.dcache.SwapReq_hits::total            367                       # number of SwapReq hits
system.cpu1.dcache.SwapReq_misses::.cpu1.data          609                       # number of SwapReq misses
system.cpu1.dcache.SwapReq_misses::total          609                       # number of SwapReq misses
system.cpu1.dcache.SwapReq_miss_latency::.cpu1.data     10068000                       # number of SwapReq miss cycles
system.cpu1.dcache.SwapReq_miss_latency::total     10068000                       # number of SwapReq miss cycles
system.cpu1.dcache.SwapReq_accesses::.cpu1.data          976                       # number of SwapReq accesses(hits+misses)
system.cpu1.dcache.SwapReq_accesses::total          976                       # number of SwapReq accesses(hits+misses)
system.cpu1.dcache.SwapReq_miss_rate::.cpu1.data     0.623975                       # miss rate for SwapReq accesses
system.cpu1.dcache.SwapReq_miss_rate::total     0.623975                       # miss rate for SwapReq accesses
system.cpu1.dcache.SwapReq_avg_miss_latency::.cpu1.data 16532.019704                       # average SwapReq miss latency
system.cpu1.dcache.SwapReq_avg_miss_latency::total 16532.019704                       # average SwapReq miss latency
system.cpu1.dcache.SwapReq_mshr_misses::.cpu1.data          609                       # number of SwapReq MSHR misses
system.cpu1.dcache.SwapReq_mshr_misses::total          609                       # number of SwapReq MSHR misses
system.cpu1.dcache.SwapReq_mshr_miss_latency::.cpu1.data      9459000                       # number of SwapReq MSHR miss cycles
system.cpu1.dcache.SwapReq_mshr_miss_latency::total      9459000                       # number of SwapReq MSHR miss cycles
system.cpu1.dcache.SwapReq_mshr_miss_rate::.cpu1.data     0.623975                       # mshr miss rate for SwapReq accesses
system.cpu1.dcache.SwapReq_mshr_miss_rate::total     0.623975                       # mshr miss rate for SwapReq accesses
system.cpu1.dcache.SwapReq_avg_mshr_miss_latency::.cpu1.data 15532.019704                       # average SwapReq mshr miss latency
system.cpu1.dcache.SwapReq_avg_mshr_miss_latency::total 15532.019704                       # average SwapReq mshr miss latency
system.cpu1.dcache.tags.pwrStateResidencyTicks::UNDEFINED 113349019000                       # Cumulative time (in ticks) in various power states
system.cpu1.dcache.tags.tagsinuse           31.651148                       # Cycle average of tags in use
system.cpu1.dcache.tags.total_refs           10753771                       # Total number of references to valid blocks.
system.cpu1.dcache.tags.sampled_refs          1557526                       # Sample count of references to valid blocks.
system.cpu1.dcache.tags.avg_refs             6.904393                       # Average number of references to valid blocks.
system.cpu1.dcache.tags.warmup_cycle                0                       # Cycle when the warmup percentage was hit.
system.cpu1.dcache.tags.occ_blocks::.cpu1.data    31.651148                       # Average occupied blocks per requestor
system.cpu1.dcache.tags.occ_percent::.cpu1.data     0.989098                       # Average percentage of cache occupancy
system.cpu1.dcache.tags.occ_percent::total     0.989098                       # Average percentage of cache occupancy
system.cpu1.dcache.tags.occ_task_id_blocks::1024           28                       # Occupied blocks per task id
system.cpu1.dcache.tags.age_task_id_blocks_1024::1           28                       # Occupied blocks per task id
system.cpu1.dcache.tags.occ_task_id_percent::1024     0.875000                       # Percentage of cache occupancy per task id
system.cpu1.dcache.tags.tag_accesses         24562142                       # Number of tag accesses
system.cpu1.dcache.tags.data_accesses        24562142                       # Number of data accesses
system.cpu_clk_domain.clock                       500                       # Clock period in ticks
system.tol2bus.pwrStateResidencyTicks::UNDEFINED 113349019000                       # Cumulative time (in ticks) in various power states
system.tol2bus.trans_dist::ReadResp           6047069                       # Transaction distribution
system.tol2bus.trans_dist::ReadRespWithInvalidate            2                       # Transaction distribution
system.tol2bus.trans_dist::WritebackDirty      1353765                       # Transaction distribution
system.tol2bus.trans_dist::WritebackClean      5391153                       # Transaction distribution
system.tol2bus.trans_dist::CleanEvict         8356935                       # Transaction distribution
system.tol2bus.trans_dist::UpgradeReq            8245                       # Transaction distribution
system.tol2bus.trans_dist::SCUpgradeReq          9070                       # Transaction distribution
system.tol2bus.trans_dist::UpgradeResp          17315                       # Transaction distribution
system.tol2bus.trans_dist::SCUpgradeFailReq          229                       # Transaction distribution
system.tol2bus.trans_dist::UpgradeFailResp          229                       # Transaction distribution
system.tol2bus.trans_dist::ReadExReq            68260                       # Transaction distribution
system.tol2bus.trans_dist::ReadExResp           68260                       # Transaction distribution
system.tol2bus.trans_dist::ReadCleanReq        237364                       # Transaction distribution
system.tol2bus.trans_dist::ReadSharedReq      5809708                       # Transaction distribution
system.tol2bus.trans_dist::InvalidateReq            1                       # Transaction distribution
system.tol2bus.trans_dist::InvalidateResp            1                       # Transaction distribution
system.tol2bus.pkt_count_system.cpu0.icache.mem_side::system.l2.cpu_side       661454                       # Packet count per connected master and slave (bytes)
system.tol2bus.pkt_count_system.cpu0.dcache.mem_side::system.l2.cpu_side      5163866                       # Packet count per connected master and slave (bytes)
system.tol2bus.pkt_count_system.cpu1.icache.mem_side::system.l2.cpu_side        17043                       # Packet count per connected master and slave (bytes)
system.tol2bus.pkt_count_system.cpu1.dcache.mem_side::system.l2.cpu_side      4665763                       # Packet count per connected master and slave (bytes)
system.tol2bus.pkt_count_system.cpu2.icache.mem_side::system.l2.cpu_side        16647                       # Packet count per connected master and slave (bytes)
system.tol2bus.pkt_count_system.cpu2.dcache.mem_side::system.l2.cpu_side      4308240                       # Packet count per connected master and slave (bytes)
system.tol2bus.pkt_count_system.cpu3.icache.mem_side::system.l2.cpu_side        16941                       # Packet count per connected master and slave (bytes)
system.tol2bus.pkt_count_system.cpu3.dcache.mem_side::system.l2.cpu_side      3477573                       # Packet count per connected master and slave (bytes)
system.tol2bus.pkt_count::total              18327527                       # Packet count per connected master and slave (bytes)
system.tol2bus.pkt_size_system.cpu0.icache.mem_side::system.l2.cpu_side     28221888                       # Cumulative packet size per connected master and slave (bytes)
system.tol2bus.pkt_size_system.cpu0.dcache.mem_side::system.l2.cpu_side    219604096                       # Cumulative packet size per connected master and slave (bytes)
system.tol2bus.pkt_size_system.cpu1.icache.mem_side::system.l2.cpu_side       727168                       # Cumulative packet size per connected master and slave (bytes)
system.tol2bus.pkt_size_system.cpu1.dcache.mem_side::system.l2.cpu_side    198510208                       # Cumulative packet size per connected master and slave (bytes)
system.tol2bus.pkt_size_system.cpu2.icache.mem_side::system.l2.cpu_side       710272                       # Cumulative packet size per connected master and slave (bytes)
system.tol2bus.pkt_size_system.cpu2.dcache.mem_side::system.l2.cpu_side    183275712                       # Cumulative packet size per connected master and slave (bytes)
system.tol2bus.pkt_size_system.cpu3.icache.mem_side::system.l2.cpu_side       722816                       # Cumulative packet size per connected master and slave (bytes)
system.tol2bus.pkt_size_system.cpu3.dcache.mem_side::system.l2.cpu_side    147924864                       # Cumulative packet size per connected master and slave (bytes)
system.tol2bus.pkt_size::total              779697024                       # Cumulative packet size per connected master and slave (bytes)
system.tol2bus.snoops                         9040079                       # Total snoops (count)
system.tol2bus.snoopTraffic                  43373568                       # Total snoop traffic (bytes)
system.tol2bus.snoop_fanout::samples         15140666                       # Request fanout histogram
system.tol2bus.snoop_fanout::mean            0.469629                       # Request fanout histogram
system.tol2bus.snoop_fanout::stdev           0.762238                       # Request fanout histogram
system.tol2bus.snoop_fanout::underflows             0      0.00%      0.00% # Request fanout histogram
system.tol2bus.snoop_fanout::0                9710438     64.13%     64.13% # Request fanout histogram
system.tol2bus.snoop_fanout::1                4438730     29.32%     93.45% # Request fanout histogram
system.tol2bus.snoop_fanout::2                 446284      2.95%     96.40% # Request fanout histogram
system.tol2bus.snoop_fanout::3                 401888      2.65%     99.05% # Request fanout histogram
system.tol2bus.snoop_fanout::4                 143098      0.95%    100.00% # Request fanout histogram
system.tol2bus.snoop_fanout::5                    228      0.00%    100.00% # Request fanout histogram
system.tol2bus.snoop_fanout::6                      0      0.00%    100.00% # Request fanout histogram
system.tol2bus.snoop_fanout::7                      0      0.00%    100.00% # Request fanout histogram
system.tol2bus.snoop_fanout::8                      0      0.00%    100.00% # Request fanout histogram
system.tol2bus.snoop_fanout::overflows              0      0.00%    100.00% # Request fanout histogram
system.tol2bus.snoop_fanout::min_value              0                       # Request fanout histogram
system.tol2bus.snoop_fanout::max_value              5                       # Request fanout histogram
system.tol2bus.snoop_fanout::total           15140666                       # Request fanout histogram
system.tol2bus.reqLayer0.occupancy        12207606853                       # Layer occupancy (ticks)
system.tol2bus.reqLayer0.utilization             10.8                       # Layer utilization (%)
system.tol2bus.respLayer5.occupancy        2166492267                       # Layer occupancy (ticks)
system.tol2bus.respLayer5.utilization             1.9                       # Layer utilization (%)
system.tol2bus.respLayer4.occupancy           8707037                       # Layer occupancy (ticks)
system.tol2bus.respLayer4.utilization             0.0                       # Layer utilization (%)
system.tol2bus.respLayer7.occupancy        1750418379                       # Layer occupancy (ticks)
system.tol2bus.respLayer7.utilization             1.5                       # Layer utilization (%)
system.tol2bus.respLayer6.occupancy           8811130                       # Layer occupancy (ticks)
system.tol2bus.respLayer6.utilization             0.0                       # Layer utilization (%)
system.tol2bus.respLayer1.occupancy        2589880063                       # Layer occupancy (ticks)
system.tol2bus.respLayer1.utilization             2.3                       # Layer utilization (%)
system.tol2bus.respLayer0.occupancy         330812304                       # Layer occupancy (ticks)
system.tol2bus.respLayer0.utilization             0.3                       # Layer utilization (%)
system.tol2bus.respLayer3.occupancy        2344821980                       # Layer occupancy (ticks)
system.tol2bus.respLayer3.utilization             2.1                       # Layer utilization (%)
system.tol2bus.respLayer2.occupancy           8861138                       # Layer occupancy (ticks)
system.tol2bus.respLayer2.utilization             0.0                       # Layer utilization (%)

---------- End Simulation Statistics   ----------
