
---------- Begin Simulation Statistics ----------
final_tick                               1279821182000                       # Number of ticks from beginning of simulation (restored from checkpoints and never reset)
host_inst_rate                                  61501                       # Simulator instruction rate (inst/s)
host_mem_usage                                 702356                       # Number of bytes of host memory used
host_op_rate                                    61681                       # Simulator op (including micro ops) rate (op/s)
host_seconds                                 23359.52                       # Real time elapsed on the host
host_tick_rate                               54787982                       # Simulator tick rate (ticks/s)
sim_freq                                 1000000000000                       # Frequency of simulated ticks
sim_insts                                  1436630908                       # Number of instructions simulated
sim_ops                                    1440834667                       # Number of ops (including micro ops) simulated
sim_seconds                                  1.279821                       # Number of seconds simulated
sim_ticks                                1279821182000                       # Number of ticks simulated
system.cpu0.branchPred.BTBCorrect                   0                       # Number of correct BTB predictions (this stat may not work properly.
system.cpu0.branchPred.BTBHitPct            88.993171                       # BTB Hit Percentage
system.cpu0.branchPred.BTBHits              190244340                       # Number of BTB hits
system.cpu0.branchPred.BTBLookups           213774089                       # Number of BTB lookups
system.cpu0.branchPred.RASInCorrect                 0                       # Number of incorrect RAS predictions.
system.cpu0.branchPred.condIncorrect         27317943                       # Number of conditional branches incorrect
system.cpu0.branchPred.condPredicted        276903272                       # Number of conditional branches predicted
system.cpu0.branchPred.indirectHits          21223106                       # Number of indirect target hits.
system.cpu0.branchPred.indirectLookups       22555033                       # Number of indirect predictor lookups.
system.cpu0.branchPred.indirectMisses         1331927                       # Number of indirect misses.
system.cpu0.branchPred.lookups              354828795                       # Number of BP lookups
system.cpu0.branchPred.usedRAS                      0                       # Number of times the RAS was used to get a target.
system.cpu0.branchPredindirectMispredicted      2188061                       # Number of mispredicted indirect branches.
system.cpu0.commit.amos                       2100296                       # Number of atomic instructions committed
system.cpu0.commit.branchMispredicts         14087190                       # The number of times a branch was mispredicted
system.cpu0.commit.branches                 329546584                       # Number of branches committed
system.cpu0.commit.bw_lim_events             37799747                       # number cycles where commit BW limit reached
system.cpu0.commit.commitNonSpecStalls        6309781                       # The number of times commit has been forced to stall to communicate backwards
system.cpu0.commit.commitSquashedInsts       78253728                       # The number of squashed insts skipped by commit
system.cpu0.commit.committedInsts          1316554283                       # Number of instructions committed
system.cpu0.commit.committedOps            1318657863                       # Number of ops (including micro ops) committed
system.cpu0.commit.committed_per_cycle::samples   2355867995                       # Number of insts commited each cycle
system.cpu0.commit.committed_per_cycle::mean     0.559733                       # Number of insts commited each cycle
system.cpu0.commit.committed_per_cycle::stdev     1.314224                       # Number of insts commited each cycle
system.cpu0.commit.committed_per_cycle::underflows            0      0.00%      0.00% # Number of insts commited each cycle
system.cpu0.commit.committed_per_cycle::0   1711001568     72.63%     72.63% # Number of insts commited each cycle
system.cpu0.commit.committed_per_cycle::1    379153661     16.09%     88.72% # Number of insts commited each cycle
system.cpu0.commit.committed_per_cycle::2    109479585      4.65%     93.37% # Number of insts commited each cycle
system.cpu0.commit.committed_per_cycle::3     79410610      3.37%     96.74% # Number of insts commited each cycle
system.cpu0.commit.committed_per_cycle::4     22954515      0.97%     97.71% # Number of insts commited each cycle
system.cpu0.commit.committed_per_cycle::5      9248640      0.39%     98.11% # Number of insts commited each cycle
system.cpu0.commit.committed_per_cycle::6      5883717      0.25%     98.36% # Number of insts commited each cycle
system.cpu0.commit.committed_per_cycle::7       935952      0.04%     98.40% # Number of insts commited each cycle
system.cpu0.commit.committed_per_cycle::8     37799747      1.60%    100.00% # Number of insts commited each cycle
system.cpu0.commit.committed_per_cycle::overflows            0      0.00%    100.00% # Number of insts commited each cycle
system.cpu0.commit.committed_per_cycle::min_value            0                       # Number of insts commited each cycle
system.cpu0.commit.committed_per_cycle::max_value            8                       # Number of insts commited each cycle
system.cpu0.commit.committed_per_cycle::total   2355867995                       # Number of insts commited each cycle
system.cpu0.commit.fp_insts                        46                       # Number of committed floating point instructions.
system.cpu0.commit.function_calls            25143522                       # Number of function calls committed.
system.cpu0.commit.int_insts               1273925907                       # Number of committed integer instructions.
system.cpu0.commit.loads                    405171761                       # Number of loads committed
system.cpu0.commit.membars                    4203739                       # Number of memory barriers committed
system.cpu0.commit.op_class_0::No_OpClass      4203745      0.32%      0.32% # Class of committed instruction
system.cpu0.commit.op_class_0::IntAlu       742065711     56.27%     56.59% # Class of committed instruction
system.cpu0.commit.op_class_0::IntMult       11831786      0.90%     57.49% # Class of committed instruction
system.cpu0.commit.op_class_0::IntDiv         2099835      0.16%     57.65% # Class of committed instruction
system.cpu0.commit.op_class_0::FloatAdd             0      0.00%     57.65% # Class of committed instruction
system.cpu0.commit.op_class_0::FloatCmp             4      0.00%     57.65% # Class of committed instruction
system.cpu0.commit.op_class_0::FloatCvt            12      0.00%     57.65% # Class of committed instruction
system.cpu0.commit.op_class_0::FloatMult            0      0.00%     57.65% # Class of committed instruction
system.cpu0.commit.op_class_0::FloatMultAcc            0      0.00%     57.65% # Class of committed instruction
system.cpu0.commit.op_class_0::FloatDiv             2      0.00%     57.65% # Class of committed instruction
system.cpu0.commit.op_class_0::FloatMisc            4      0.00%     57.65% # Class of committed instruction
system.cpu0.commit.op_class_0::FloatSqrt            0      0.00%     57.65% # Class of committed instruction
system.cpu0.commit.op_class_0::SimdAdd              0      0.00%     57.65% # Class of committed instruction
system.cpu0.commit.op_class_0::SimdAddAcc            0      0.00%     57.65% # Class of committed instruction
system.cpu0.commit.op_class_0::SimdAlu              0      0.00%     57.65% # Class of committed instruction
system.cpu0.commit.op_class_0::SimdCmp              0      0.00%     57.65% # Class of committed instruction
system.cpu0.commit.op_class_0::SimdCvt              0      0.00%     57.65% # Class of committed instruction
system.cpu0.commit.op_class_0::SimdMisc             0      0.00%     57.65% # Class of committed instruction
system.cpu0.commit.op_class_0::SimdMult             0      0.00%     57.65% # Class of committed instruction
system.cpu0.commit.op_class_0::SimdMultAcc            0      0.00%     57.65% # Class of committed instruction
system.cpu0.commit.op_class_0::SimdShift            0      0.00%     57.65% # Class of committed instruction
system.cpu0.commit.op_class_0::SimdShiftAcc            0      0.00%     57.65% # Class of committed instruction
system.cpu0.commit.op_class_0::SimdDiv              0      0.00%     57.65% # Class of committed instruction
system.cpu0.commit.op_class_0::SimdSqrt             0      0.00%     57.65% # Class of committed instruction
system.cpu0.commit.op_class_0::SimdFloatAdd            0      0.00%     57.65% # Class of committed instruction
system.cpu0.commit.op_class_0::SimdFloatAlu            0      0.00%     57.65% # Class of committed instruction
system.cpu0.commit.op_class_0::SimdFloatCmp            0      0.00%     57.65% # Class of committed instruction
system.cpu0.commit.op_class_0::SimdFloatCvt            0      0.00%     57.65% # Class of committed instruction
system.cpu0.commit.op_class_0::SimdFloatDiv            0      0.00%     57.65% # Class of committed instruction
system.cpu0.commit.op_class_0::SimdFloatMisc            0      0.00%     57.65% # Class of committed instruction
system.cpu0.commit.op_class_0::SimdFloatMult            0      0.00%     57.65% # Class of committed instruction
system.cpu0.commit.op_class_0::SimdFloatMultAcc            0      0.00%     57.65% # Class of committed instruction
system.cpu0.commit.op_class_0::SimdFloatSqrt            0      0.00%     57.65% # Class of committed instruction
system.cpu0.commit.op_class_0::SimdReduceAdd            0      0.00%     57.65% # Class of committed instruction
system.cpu0.commit.op_class_0::SimdReduceAlu            0      0.00%     57.65% # Class of committed instruction
system.cpu0.commit.op_class_0::SimdReduceCmp            0      0.00%     57.65% # Class of committed instruction
system.cpu0.commit.op_class_0::SimdFloatReduceAdd            0      0.00%     57.65% # Class of committed instruction
system.cpu0.commit.op_class_0::SimdFloatReduceCmp            0      0.00%     57.65% # Class of committed instruction
system.cpu0.commit.op_class_0::SimdAes              0      0.00%     57.65% # Class of committed instruction
system.cpu0.commit.op_class_0::SimdAesMix            0      0.00%     57.65% # Class of committed instruction
system.cpu0.commit.op_class_0::SimdSha1Hash            0      0.00%     57.65% # Class of committed instruction
system.cpu0.commit.op_class_0::SimdSha1Hash2            0      0.00%     57.65% # Class of committed instruction
system.cpu0.commit.op_class_0::SimdSha256Hash            0      0.00%     57.65% # Class of committed instruction
system.cpu0.commit.op_class_0::SimdSha256Hash2            0      0.00%     57.65% # Class of committed instruction
system.cpu0.commit.op_class_0::SimdShaSigma2            0      0.00%     57.65% # Class of committed instruction
system.cpu0.commit.op_class_0::SimdShaSigma3            0      0.00%     57.65% # Class of committed instruction
system.cpu0.commit.op_class_0::SimdPredAlu            0      0.00%     57.65% # Class of committed instruction
system.cpu0.commit.op_class_0::MemRead      407272049     30.89%     88.53% # Class of committed instruction
system.cpu0.commit.op_class_0::MemWrite     151184691     11.47%    100.00% # Class of committed instruction
system.cpu0.commit.op_class_0::FloatMemRead            8      0.00%    100.00% # Class of committed instruction
system.cpu0.commit.op_class_0::FloatMemWrite           16      0.00%    100.00% # Class of committed instruction
system.cpu0.commit.op_class_0::IprAccess            0      0.00%    100.00% # Class of committed instruction
system.cpu0.commit.op_class_0::InstPrefetch            0      0.00%    100.00% # Class of committed instruction
system.cpu0.commit.op_class_0::total       1318657863                       # Class of committed instruction
system.cpu0.commit.refs                     558456764                       # Number of memory references committed
system.cpu0.commit.swp_count                        0                       # Number of s/w prefetches committed
system.cpu0.commit.vec_insts                        0                       # Number of committed Vector instructions.
system.cpu0.committedInsts                 1316554283                       # Number of Instructions Simulated
system.cpu0.committedOps                   1318657863                       # Number of Ops (including micro ops) Simulated
system.cpu0.cpi                              1.939344                       # CPI: Cycles Per Instruction
system.cpu0.cpi_total                        1.939344                       # CPI: Total CPI of All Threads
system.cpu0.decode.BlockedCycles            444888744                       # Number of cycles decode is blocked
system.cpu0.decode.BranchMispred             13233907                       # Number of times decode detected a branch misprediction
system.cpu0.decode.BranchResolved           185622637                       # Number of times decode resolved a branch
system.cpu0.decode.DecodedInsts            1432314100                       # Number of instructions handled by decode
system.cpu0.decode.IdleCycles               923675421                       # Number of cycles decode is idle
system.cpu0.decode.RunCycles                989362767                       # Number of cycles decode is running
system.cpu0.decode.SquashCycles              14095725                       # Number of cycles decode is squashing
system.cpu0.decode.SquashedInsts             14554717                       # Number of squashed instructions handled by decode
system.cpu0.decode.UnblockCycles              6275606                       # Number of cycles decode is unblocking
system.cpu0.dtb.accesses                            0                       # DTB accesses
system.cpu0.dtb.hits                                0                       # DTB hits
system.cpu0.dtb.misses                              0                       # DTB misses
system.cpu0.dtb.read_accesses                       0                       # DTB read accesses
system.cpu0.dtb.read_hits                           0                       # DTB read hits
system.cpu0.dtb.read_misses                         0                       # DTB read misses
system.cpu0.dtb.write_accesses                      0                       # DTB write accesses
system.cpu0.dtb.write_hits                          0                       # DTB write hits
system.cpu0.dtb.write_misses                        0                       # DTB write misses
system.cpu0.fetch.Branches                  354828795                       # Number of branches that fetch encountered
system.cpu0.fetch.CacheLines                243748266                       # Number of cache lines fetched
system.cpu0.fetch.Cycles                   1442888459                       # Number of cycles fetch has run and was not squashing or blocked
system.cpu0.fetch.IcacheSquashes              6568660                       # Number of outstanding Icache misses that were squashed
system.cpu0.fetch.IcacheWaitRetryStallCycles           67                       # Number of stall cycles due to full MSHR
system.cpu0.fetch.Insts                    1462350172                       # Number of instructions fetch has processed
system.cpu0.fetch.MiscStallCycles                  34                       # Number of cycles fetch has spent waiting on interrupts, or bad addresses, or out of MSHRs
system.cpu0.fetch.PendingTrapStallCycles          166                       # Number of stall cycles due to pending traps
system.cpu0.fetch.SquashCycles               54653010                       # Number of cycles fetch has spent squashing
system.cpu0.fetch.branchRate                 0.138971                       # Number of branch fetches per cycle
system.cpu0.fetch.icacheStallCycles         908083032                       # Number of cycles fetch is stalled on an Icache miss
system.cpu0.fetch.predictedBranches         211467446                       # Number of branches that fetch has predicted taken
system.cpu0.fetch.rate                       0.572740                       # Number of inst fetches per cycle
system.cpu0.fetch.rateDist::samples        2378298263                       # Number of instructions fetched each cycle (Total)
system.cpu0.fetch.rateDist::mean             0.615757                       # Number of instructions fetched each cycle (Total)
system.cpu0.fetch.rateDist::stdev            0.898171                       # Number of instructions fetched each cycle (Total)
system.cpu0.fetch.rateDist::underflows              0      0.00%      0.00% # Number of instructions fetched each cycle (Total)
system.cpu0.fetch.rateDist::0              1341640798     56.41%     56.41% # Number of instructions fetched each cycle (Total)
system.cpu0.fetch.rateDist::1               775889651     32.62%     89.04% # Number of instructions fetched each cycle (Total)
system.cpu0.fetch.rateDist::2               137212662      5.77%     94.80% # Number of instructions fetched each cycle (Total)
system.cpu0.fetch.rateDist::3               100456966      4.22%     99.03% # Number of instructions fetched each cycle (Total)
system.cpu0.fetch.rateDist::4                13587158      0.57%     99.60% # Number of instructions fetched each cycle (Total)
system.cpu0.fetch.rateDist::5                 4952217      0.21%     99.81% # Number of instructions fetched each cycle (Total)
system.cpu0.fetch.rateDist::6                  355312      0.01%     99.82% # Number of instructions fetched each cycle (Total)
system.cpu0.fetch.rateDist::7                 2101294      0.09%     99.91% # Number of instructions fetched each cycle (Total)
system.cpu0.fetch.rateDist::8                 2102205      0.09%    100.00% # Number of instructions fetched each cycle (Total)
system.cpu0.fetch.rateDist::overflows               0      0.00%    100.00% # Number of instructions fetched each cycle (Total)
system.cpu0.fetch.rateDist::min_value               0                       # Number of instructions fetched each cycle (Total)
system.cpu0.fetch.rateDist::max_value               8                       # Number of instructions fetched each cycle (Total)
system.cpu0.fetch.rateDist::total          2378298263                       # Number of instructions fetched each cycle (Total)
system.cpu0.fp_regfile_reads                       40                       # number of floating regfile reads
system.cpu0.fp_regfile_writes                      22                       # number of floating regfile writes
system.cpu0.idleCycles                      174953929                       # Total number of cycles that the CPU has spent unscheduled due to idling
system.cpu0.iew.branchMispredicts            14186297                       # Number of branch mispredicts detected at execute
system.cpu0.iew.exec_branches               335768123                       # Number of branches executed
system.cpu0.iew.exec_nop                            0                       # number of nop insts executed
system.cpu0.iew.exec_rate                    0.541639                       # Inst execution rate
system.cpu0.iew.exec_refs                   603437116                       # number of memory reference insts executed
system.cpu0.iew.exec_stores                 155541640                       # Number of stores executed
system.cpu0.iew.exec_swp                            0                       # number of swp insts executed
system.cpu0.iew.iewBlockCycles              364922644                       # Number of cycles IEW is blocking
system.cpu0.iew.iewDispLoadInsts            446725450                       # Number of dispatched load instructions
system.cpu0.iew.iewDispNonSpecInsts           2106657                       # Number of dispatched non-speculative instructions
system.cpu0.iew.iewDispSquashedInsts          8444380                       # Number of squashed instructions skipped by dispatch
system.cpu0.iew.iewDispStoreInsts           157072811                       # Number of dispatched store instructions
system.cpu0.iew.iewDispatchedInsts         1396848706                       # Number of instructions dispatched to IQ
system.cpu0.iew.iewExecLoadInsts            447895476                       # Number of load instructions executed
system.cpu0.iew.iewExecSquashedInsts         10574517                       # Number of squashed instructions skipped in execute
system.cpu0.iew.iewExecutedInsts           1382941735                       # Number of executed instructions
system.cpu0.iew.iewIQFullEvents               1626548                       # Number of times the IQ has become full, causing a stall
system.cpu0.iew.iewIdleCycles                       0                       # Number of cycles IEW is idle
system.cpu0.iew.iewLSQFullEvents              9310916                       # Number of times the LSQ has become full, causing a stall
system.cpu0.iew.iewSquashCycles              14095725                       # Number of cycles IEW is squashing
system.cpu0.iew.iewUnblockCycles             13556612                       # Number of cycles IEW is unblocking
system.cpu0.iew.lsq.thread0.blockedLoads            0                       # Number of blocked loads due to partial load-store forwarding
system.cpu0.iew.lsq.thread0.cacheBlocked       171890                       # Number of times an access to memory failed due to the cache being blocked
system.cpu0.iew.lsq.thread0.forwLoads        24730162                       # Number of loads that had data forwarded from stores
system.cpu0.iew.lsq.thread0.ignoredResponses        49929                       # Number of memory responses ignored because the instruction is squashed
system.cpu0.iew.lsq.thread0.invAddrLoads            0                       # Number of loads ignored due to an invalid address
system.cpu0.iew.lsq.thread0.invAddrSwpfs            0                       # Number of software prefetches ignored due to an invalid address
system.cpu0.iew.lsq.thread0.memOrderViolation         8285                       # Number of memory ordering violations
system.cpu0.iew.lsq.thread0.rescheduledLoads      4504517                       # Number of loads that were rescheduled
system.cpu0.iew.lsq.thread0.squashedLoads     41553688                       # Number of loads squashed
system.cpu0.iew.lsq.thread0.squashedStores      3787808                       # Number of stores squashed
system.cpu0.iew.memOrderViolationEvents          8285                       # Number of memory order violations
system.cpu0.iew.predictedNotTakenIncorrect       735489                       # Number of branches that were predicted not taken incorrectly
system.cpu0.iew.predictedTakenIncorrect      13450808                       # Number of branches that were predicted taken incorrectly
system.cpu0.iew.wb_consumers                628472484                       # num instructions consuming a value
system.cpu0.iew.wb_count                   1368374081                       # cumulative count of insts written-back
system.cpu0.iew.wb_fanout                    0.833222                       # average fanout of values written-back
system.cpu0.iew.wb_producers                523656818                       # num instructions producing a value
system.cpu0.iew.wb_rate                      0.535934                       # insts written-back per cycle
system.cpu0.iew.wb_sent                    1368465281                       # cumulative count of insts sent to commit
system.cpu0.int_regfile_reads              1694498289                       # number of integer regfile reads
system.cpu0.int_regfile_writes              886931134                       # number of integer regfile writes
system.cpu0.ipc                              0.515638                       # IPC: Instructions Per Cycle
system.cpu0.ipc_total                        0.515638                       # IPC: Total IPC of All Threads
system.cpu0.iq.FU_type_0::No_OpClass          4205646      0.30%      0.30% # Type of FU issued
system.cpu0.iq.FU_type_0::IntAlu            769230079     55.20%     55.50% # Type of FU issued
system.cpu0.iq.FU_type_0::IntMult            11847159      0.85%     56.35% # Type of FU issued
system.cpu0.iq.FU_type_0::IntDiv              2100408      0.15%     56.50% # Type of FU issued
system.cpu0.iq.FU_type_0::FloatAdd                  0      0.00%     56.50% # Type of FU issued
system.cpu0.iq.FU_type_0::FloatCmp                  4      0.00%     56.50% # Type of FU issued
system.cpu0.iq.FU_type_0::FloatCvt                 12      0.00%     56.50% # Type of FU issued
system.cpu0.iq.FU_type_0::FloatMult                 0      0.00%     56.50% # Type of FU issued
system.cpu0.iq.FU_type_0::FloatMultAcc              0      0.00%     56.50% # Type of FU issued
system.cpu0.iq.FU_type_0::FloatDiv                  2      0.00%     56.50% # Type of FU issued
system.cpu0.iq.FU_type_0::FloatMisc                 4      0.00%     56.50% # Type of FU issued
system.cpu0.iq.FU_type_0::FloatSqrt                 0      0.00%     56.50% # Type of FU issued
system.cpu0.iq.FU_type_0::SimdAdd                   0      0.00%     56.50% # Type of FU issued
system.cpu0.iq.FU_type_0::SimdAddAcc                0      0.00%     56.50% # Type of FU issued
system.cpu0.iq.FU_type_0::SimdAlu                   0      0.00%     56.50% # Type of FU issued
system.cpu0.iq.FU_type_0::SimdCmp                   0      0.00%     56.50% # Type of FU issued
system.cpu0.iq.FU_type_0::SimdCvt                   0      0.00%     56.50% # Type of FU issued
system.cpu0.iq.FU_type_0::SimdMisc                  0      0.00%     56.50% # Type of FU issued
system.cpu0.iq.FU_type_0::SimdMult                  0      0.00%     56.50% # Type of FU issued
system.cpu0.iq.FU_type_0::SimdMultAcc               0      0.00%     56.50% # Type of FU issued
system.cpu0.iq.FU_type_0::SimdShift                 0      0.00%     56.50% # Type of FU issued
system.cpu0.iq.FU_type_0::SimdShiftAcc              0      0.00%     56.50% # Type of FU issued
system.cpu0.iq.FU_type_0::SimdDiv                   0      0.00%     56.50% # Type of FU issued
system.cpu0.iq.FU_type_0::SimdSqrt                  0      0.00%     56.50% # Type of FU issued
system.cpu0.iq.FU_type_0::SimdFloatAdd              0      0.00%     56.50% # Type of FU issued
system.cpu0.iq.FU_type_0::SimdFloatAlu              0      0.00%     56.50% # Type of FU issued
system.cpu0.iq.FU_type_0::SimdFloatCmp              0      0.00%     56.50% # Type of FU issued
system.cpu0.iq.FU_type_0::SimdFloatCvt              0      0.00%     56.50% # Type of FU issued
system.cpu0.iq.FU_type_0::SimdFloatDiv              0      0.00%     56.50% # Type of FU issued
system.cpu0.iq.FU_type_0::SimdFloatMisc             0      0.00%     56.50% # Type of FU issued
system.cpu0.iq.FU_type_0::SimdFloatMult             0      0.00%     56.50% # Type of FU issued
system.cpu0.iq.FU_type_0::SimdFloatMultAcc            0      0.00%     56.50% # Type of FU issued
system.cpu0.iq.FU_type_0::SimdFloatSqrt             0      0.00%     56.50% # Type of FU issued
system.cpu0.iq.FU_type_0::SimdReduceAdd             0      0.00%     56.50% # Type of FU issued
system.cpu0.iq.FU_type_0::SimdReduceAlu             0      0.00%     56.50% # Type of FU issued
system.cpu0.iq.FU_type_0::SimdReduceCmp             0      0.00%     56.50% # Type of FU issued
system.cpu0.iq.FU_type_0::SimdFloatReduceAdd            0      0.00%     56.50% # Type of FU issued
system.cpu0.iq.FU_type_0::SimdFloatReduceCmp            0      0.00%     56.50% # Type of FU issued
system.cpu0.iq.FU_type_0::SimdAes                   0      0.00%     56.50% # Type of FU issued
system.cpu0.iq.FU_type_0::SimdAesMix                0      0.00%     56.50% # Type of FU issued
system.cpu0.iq.FU_type_0::SimdSha1Hash              0      0.00%     56.50% # Type of FU issued
system.cpu0.iq.FU_type_0::SimdSha1Hash2             0      0.00%     56.50% # Type of FU issued
system.cpu0.iq.FU_type_0::SimdSha256Hash            0      0.00%     56.50% # Type of FU issued
system.cpu0.iq.FU_type_0::SimdSha256Hash2            0      0.00%     56.50% # Type of FU issued
system.cpu0.iq.FU_type_0::SimdShaSigma2             0      0.00%     56.50% # Type of FU issued
system.cpu0.iq.FU_type_0::SimdShaSigma3             0      0.00%     56.50% # Type of FU issued
system.cpu0.iq.FU_type_0::SimdPredAlu               0      0.00%     56.50% # Type of FU issued
system.cpu0.iq.FU_type_0::MemRead           451606067     32.41%     88.91% # Type of FU issued
system.cpu0.iq.FU_type_0::MemWrite          154526849     11.09%    100.00% # Type of FU issued
system.cpu0.iq.FU_type_0::FloatMemRead              8      0.00%    100.00% # Type of FU issued
system.cpu0.iq.FU_type_0::FloatMemWrite            16      0.00%    100.00% # Type of FU issued
system.cpu0.iq.FU_type_0::IprAccess                 0      0.00%    100.00% # Type of FU issued
system.cpu0.iq.FU_type_0::InstPrefetch              0      0.00%    100.00% # Type of FU issued
system.cpu0.iq.FU_type_0::total            1393516254                       # Type of FU issued
system.cpu0.iq.fp_alu_accesses                     49                       # Number of floating point alu accesses
system.cpu0.iq.fp_inst_queue_reads                 95                       # Number of floating instruction queue reads
system.cpu0.iq.fp_inst_queue_wakeup_accesses           46                       # Number of floating instruction queue wakeup accesses
system.cpu0.iq.fp_inst_queue_writes                46                       # Number of floating instruction queue writes
system.cpu0.iq.fu_busy_cnt                    3452172                       # FU busy when requested
system.cpu0.iq.fu_busy_rate                  0.002477                       # FU busy rate (busy events/executed inst)
system.cpu0.iq.fu_full::No_OpClass                  0      0.00%      0.00% # attempts to use FU when none available
system.cpu0.iq.fu_full::IntAlu                1006362     29.15%     29.15% # attempts to use FU when none available
system.cpu0.iq.fu_full::IntMult                     0      0.00%     29.15% # attempts to use FU when none available
system.cpu0.iq.fu_full::IntDiv                      0      0.00%     29.15% # attempts to use FU when none available
system.cpu0.iq.fu_full::FloatAdd                    0      0.00%     29.15% # attempts to use FU when none available
system.cpu0.iq.fu_full::FloatCmp                    0      0.00%     29.15% # attempts to use FU when none available
system.cpu0.iq.fu_full::FloatCvt                    0      0.00%     29.15% # attempts to use FU when none available
system.cpu0.iq.fu_full::FloatMult                   0      0.00%     29.15% # attempts to use FU when none available
system.cpu0.iq.fu_full::FloatMultAcc                0      0.00%     29.15% # attempts to use FU when none available
system.cpu0.iq.fu_full::FloatDiv                    0      0.00%     29.15% # attempts to use FU when none available
system.cpu0.iq.fu_full::FloatMisc                   0      0.00%     29.15% # attempts to use FU when none available
system.cpu0.iq.fu_full::FloatSqrt                   0      0.00%     29.15% # attempts to use FU when none available
system.cpu0.iq.fu_full::SimdAdd                     0      0.00%     29.15% # attempts to use FU when none available
system.cpu0.iq.fu_full::SimdAddAcc                  0      0.00%     29.15% # attempts to use FU when none available
system.cpu0.iq.fu_full::SimdAlu                     0      0.00%     29.15% # attempts to use FU when none available
system.cpu0.iq.fu_full::SimdCmp                     0      0.00%     29.15% # attempts to use FU when none available
system.cpu0.iq.fu_full::SimdCvt                     0      0.00%     29.15% # attempts to use FU when none available
system.cpu0.iq.fu_full::SimdMisc                    0      0.00%     29.15% # attempts to use FU when none available
system.cpu0.iq.fu_full::SimdMult                    0      0.00%     29.15% # attempts to use FU when none available
system.cpu0.iq.fu_full::SimdMultAcc                 0      0.00%     29.15% # attempts to use FU when none available
system.cpu0.iq.fu_full::SimdShift                   0      0.00%     29.15% # attempts to use FU when none available
system.cpu0.iq.fu_full::SimdShiftAcc                0      0.00%     29.15% # attempts to use FU when none available
system.cpu0.iq.fu_full::SimdDiv                     0      0.00%     29.15% # attempts to use FU when none available
system.cpu0.iq.fu_full::SimdSqrt                    0      0.00%     29.15% # attempts to use FU when none available
system.cpu0.iq.fu_full::SimdFloatAdd                0      0.00%     29.15% # attempts to use FU when none available
system.cpu0.iq.fu_full::SimdFloatAlu                0      0.00%     29.15% # attempts to use FU when none available
system.cpu0.iq.fu_full::SimdFloatCmp                0      0.00%     29.15% # attempts to use FU when none available
system.cpu0.iq.fu_full::SimdFloatCvt                0      0.00%     29.15% # attempts to use FU when none available
system.cpu0.iq.fu_full::SimdFloatDiv                0      0.00%     29.15% # attempts to use FU when none available
system.cpu0.iq.fu_full::SimdFloatMisc               0      0.00%     29.15% # attempts to use FU when none available
system.cpu0.iq.fu_full::SimdFloatMult               0      0.00%     29.15% # attempts to use FU when none available
system.cpu0.iq.fu_full::SimdFloatMultAcc            0      0.00%     29.15% # attempts to use FU when none available
system.cpu0.iq.fu_full::SimdFloatSqrt               0      0.00%     29.15% # attempts to use FU when none available
system.cpu0.iq.fu_full::SimdReduceAdd               0      0.00%     29.15% # attempts to use FU when none available
system.cpu0.iq.fu_full::SimdReduceAlu               0      0.00%     29.15% # attempts to use FU when none available
system.cpu0.iq.fu_full::SimdReduceCmp               0      0.00%     29.15% # attempts to use FU when none available
system.cpu0.iq.fu_full::SimdFloatReduceAdd            0      0.00%     29.15% # attempts to use FU when none available
system.cpu0.iq.fu_full::SimdFloatReduceCmp            0      0.00%     29.15% # attempts to use FU when none available
system.cpu0.iq.fu_full::SimdAes                     0      0.00%     29.15% # attempts to use FU when none available
system.cpu0.iq.fu_full::SimdAesMix                  0      0.00%     29.15% # attempts to use FU when none available
system.cpu0.iq.fu_full::SimdSha1Hash                0      0.00%     29.15% # attempts to use FU when none available
system.cpu0.iq.fu_full::SimdSha1Hash2               0      0.00%     29.15% # attempts to use FU when none available
system.cpu0.iq.fu_full::SimdSha256Hash              0      0.00%     29.15% # attempts to use FU when none available
system.cpu0.iq.fu_full::SimdSha256Hash2             0      0.00%     29.15% # attempts to use FU when none available
system.cpu0.iq.fu_full::SimdShaSigma2               0      0.00%     29.15% # attempts to use FU when none available
system.cpu0.iq.fu_full::SimdShaSigma3               0      0.00%     29.15% # attempts to use FU when none available
system.cpu0.iq.fu_full::SimdPredAlu                 0      0.00%     29.15% # attempts to use FU when none available
system.cpu0.iq.fu_full::MemRead               1971691     57.11%     86.27% # attempts to use FU when none available
system.cpu0.iq.fu_full::MemWrite               474116     13.73%    100.00% # attempts to use FU when none available
system.cpu0.iq.fu_full::FloatMemRead                0      0.00%    100.00% # attempts to use FU when none available
system.cpu0.iq.fu_full::FloatMemWrite               3      0.00%    100.00% # attempts to use FU when none available
system.cpu0.iq.fu_full::IprAccess                   0      0.00%    100.00% # attempts to use FU when none available
system.cpu0.iq.fu_full::InstPrefetch                0      0.00%    100.00% # attempts to use FU when none available
system.cpu0.iq.int_alu_accesses            1392762731                       # Number of integer alu accesses
system.cpu0.iq.int_inst_queue_reads        5168976917                       # Number of integer instruction queue reads
system.cpu0.iq.int_inst_queue_wakeup_accesses   1368374035                       # Number of integer instruction queue wakeup accesses
system.cpu0.iq.int_inst_queue_writes       1475047400                       # Number of integer instruction queue writes
system.cpu0.iq.iqInstsAdded                1390538067                       # Number of instructions added to the IQ (excludes non-spec)
system.cpu0.iq.iqInstsIssued               1393516254                       # Number of instructions issued
system.cpu0.iq.iqNonSpecInstsAdded            6310639                       # Number of non-speculative instructions added to the IQ
system.cpu0.iq.iqSquashedInstsExamined       78190836                       # Number of squashed instructions iterated over during squash; mainly for profiling
system.cpu0.iq.iqSquashedInstsIssued           194071                       # Number of squashed instructions issued
system.cpu0.iq.iqSquashedNonSpecRemoved           858                       # Number of squashed non-spec instructions that were removed
system.cpu0.iq.iqSquashedOperandsExamined     25200421                       # Number of squashed operands that are examined and possibly removed from graph
system.cpu0.iq.issued_per_cycle::samples   2378298263                       # Number of insts issued each cycle
system.cpu0.iq.issued_per_cycle::mean        0.585930                       # Number of insts issued each cycle
system.cpu0.iq.issued_per_cycle::stdev       0.842465                       # Number of insts issued each cycle
system.cpu0.iq.issued_per_cycle::underflows            0      0.00%      0.00% # Number of insts issued each cycle
system.cpu0.iq.issued_per_cycle::0         1387357043     58.33%     58.33% # Number of insts issued each cycle
system.cpu0.iq.issued_per_cycle::1          695214500     29.23%     87.57% # Number of insts issued each cycle
system.cpu0.iq.issued_per_cycle::2          217132118      9.13%     96.70% # Number of insts issued each cycle
system.cpu0.iq.issued_per_cycle::3           61109586      2.57%     99.26% # Number of insts issued each cycle
system.cpu0.iq.issued_per_cycle::4           11950597      0.50%     99.77% # Number of insts issued each cycle
system.cpu0.iq.issued_per_cycle::5            1879748      0.08%     99.85% # Number of insts issued each cycle
system.cpu0.iq.issued_per_cycle::6            2304958      0.10%     99.94% # Number of insts issued each cycle
system.cpu0.iq.issued_per_cycle::7            1119820      0.05%     99.99% # Number of insts issued each cycle
system.cpu0.iq.issued_per_cycle::8             229893      0.01%    100.00% # Number of insts issued each cycle
system.cpu0.iq.issued_per_cycle::overflows            0      0.00%    100.00% # Number of insts issued each cycle
system.cpu0.iq.issued_per_cycle::min_value            0                       # Number of insts issued each cycle
system.cpu0.iq.issued_per_cycle::max_value            8                       # Number of insts issued each cycle
system.cpu0.iq.issued_per_cycle::total     2378298263                       # Number of insts issued each cycle
system.cpu0.iq.rate                          0.545781                       # Inst issue rate
system.cpu0.iq.vec_alu_accesses                     0                       # Number of vector alu accesses
system.cpu0.iq.vec_inst_queue_reads                 0                       # Number of vector instruction queue reads
system.cpu0.iq.vec_inst_queue_wakeup_accesses            0                       # Number of vector instruction queue wakeup accesses
system.cpu0.iq.vec_inst_queue_writes                0                       # Number of vector instruction queue writes
system.cpu0.itb.accesses                            0                       # DTB accesses
system.cpu0.itb.hits                                0                       # DTB hits
system.cpu0.itb.misses                              0                       # DTB misses
system.cpu0.itb.read_accesses                       0                       # DTB read accesses
system.cpu0.itb.read_hits                           0                       # DTB read hits
system.cpu0.itb.read_misses                         0                       # DTB read misses
system.cpu0.itb.write_accesses                      0                       # DTB write accesses
system.cpu0.itb.write_hits                          0                       # DTB write hits
system.cpu0.itb.write_misses                        0                       # DTB write misses
system.cpu0.memDep0.conflictingLoads         19766735                       # Number of conflicting loads.
system.cpu0.memDep0.conflictingStores         1435031                       # Number of conflicting stores.
system.cpu0.memDep0.insertedLoads           446725450                       # Number of loads inserted to the mem dependence unit.
system.cpu0.memDep0.insertedStores          157072811                       # Number of stores inserted to the mem dependence unit.
system.cpu0.misc_regfile_reads                   1903                       # number of misc regfile reads
system.cpu0.misc_regfile_writes                    22                       # number of misc regfile writes
system.cpu0.numCycles                      2553252192                       # number of cpu cycles simulated
system.cpu0.numWorkItemsCompleted                   0                       # number of work items this cpu completed
system.cpu0.numWorkItemsStarted                     0                       # number of work items this cpu started
system.cpu0.quiesceCycles                     6390373                       # Total number of cycles that CPU has spent quiesced or waiting for an interrupt
system.cpu0.rename.BlockCycles              394102440                       # Number of cycles rename is blocking
system.cpu0.rename.CommittedMaps            845199910                       # Number of HB maps that are committed
system.cpu0.rename.IQFullEvents              14709268                       # Number of times rename has blocked due to IQ full
system.cpu0.rename.IdleCycles               940039318                       # Number of cycles rename is idle
system.cpu0.rename.LQFullEvents              13086753                       # Number of times rename has blocked due to LQ full
system.cpu0.rename.ROBFullEvents                21379                       # Number of times rename has blocked due to ROB full
system.cpu0.rename.RenameLookups           1736364697                       # Number of register rename lookups that rename has made
system.cpu0.rename.RenamedInsts            1420241775                       # Number of instructions processed by rename
system.cpu0.rename.RenamedOperands          932016354                       # Number of destination operands rename has renamed
system.cpu0.rename.RunCycles                977974018                       # Number of cycles rename is running
system.cpu0.rename.SQFullEvents              23366294                       # Number of times rename has blocked due to SQ full
system.cpu0.rename.SquashCycles              14095725                       # Number of cycles rename is squashing
system.cpu0.rename.UnblockCycles             51917865                       # Number of cycles rename is unblocking
system.cpu0.rename.UndoneMaps                86816433                       # Number of HB maps that are undone due to squashing
system.cpu0.rename.fp_rename_lookups               40                       # Number of floating rename lookups
system.cpu0.rename.int_rename_lookups      1736364657                       # Number of integer rename lookups
system.cpu0.rename.serializeStallCycles        168897                       # count of cycles rename stalled for serializing inst
system.cpu0.rename.serializingInsts              5884                       # count of serializing insts renamed
system.cpu0.rename.skidInsts                 32629191                       # count of insts added to the skid buffer
system.cpu0.rename.tempSerializingInsts          5881                       # count of temporary serializing insts renamed
system.cpu0.rob.rob_reads                  3714955607                       # The number of ROB reads
system.cpu0.rob.rob_writes                 2816282804                       # The number of ROB writes
system.cpu0.timesIdled                       25529572                       # Number of times that the entire CPU went into an idle state and unscheduled itself
system.cpu0.workload.numSyscalls                 1870                       # Number of system calls
system.cpu1.branchPred.BTBCorrect                   0                       # Number of correct BTB predictions (this stat may not work properly.
system.cpu1.branchPred.BTBHitPct            90.710256                       # BTB Hit Percentage
system.cpu1.branchPred.BTBHits               20746964                       # Number of BTB hits
system.cpu1.branchPred.BTBLookups            22871685                       # Number of BTB lookups
system.cpu1.branchPred.RASInCorrect                 0                       # Number of incorrect RAS predictions.
system.cpu1.branchPred.condIncorrect          2791435                       # Number of conditional branches incorrect
system.cpu1.branchPred.condPredicted         30815311                       # Number of conditional branches predicted
system.cpu1.branchPred.indirectHits           1069225                       # Number of indirect target hits.
system.cpu1.branchPred.indirectLookups        1092356                       # Number of indirect predictor lookups.
system.cpu1.branchPred.indirectMisses           23131                       # Number of indirect misses.
system.cpu1.branchPred.lookups               35388219                       # Number of BP lookups
system.cpu1.branchPred.usedRAS                      0                       # Number of times the RAS was used to get a target.
system.cpu1.branchPredindirectMispredicted        48038                       # Number of mispredicted indirect branches.
system.cpu1.commit.amos                       2100001                       # Number of atomic instructions committed
system.cpu1.commit.branchMispredicts          1985551                       # The number of times a branch was mispredicted
system.cpu1.commit.branches                  28121395                       # Number of branches committed
system.cpu1.commit.bw_lim_events              3774906                       # number cycles where commit BW limit reached
system.cpu1.commit.commitNonSpecStalls        6300682                       # The number of times commit has been forced to stall to communicate backwards
system.cpu1.commit.commitSquashedInsts       15999474                       # The number of squashed insts skipped by commit
system.cpu1.commit.committedInsts           120076625                       # Number of instructions committed
system.cpu1.commit.committedOps             122176804                       # Number of ops (including micro ops) committed
system.cpu1.commit.committed_per_cycle::samples    462989030                       # Number of insts commited each cycle
system.cpu1.commit.committed_per_cycle::mean     0.263887                       # Number of insts commited each cycle
system.cpu1.commit.committed_per_cycle::stdev     1.021191                       # Number of insts commited each cycle
system.cpu1.commit.committed_per_cycle::underflows            0      0.00%      0.00% # Number of insts commited each cycle
system.cpu1.commit.committed_per_cycle::0    412847214     89.17%     89.17% # Number of insts commited each cycle
system.cpu1.commit.committed_per_cycle::1     25163037      5.43%     94.60% # Number of insts commited each cycle
system.cpu1.commit.committed_per_cycle::2      8233064      1.78%     96.38% # Number of insts commited each cycle
system.cpu1.commit.committed_per_cycle::3      7649189      1.65%     98.04% # Number of insts commited each cycle
system.cpu1.commit.committed_per_cycle::4      2034932      0.44%     98.47% # Number of insts commited each cycle
system.cpu1.commit.committed_per_cycle::5       808069      0.17%     98.65% # Number of insts commited each cycle
system.cpu1.commit.committed_per_cycle::6      2129582      0.46%     99.11% # Number of insts commited each cycle
system.cpu1.commit.committed_per_cycle::7       349037      0.08%     99.18% # Number of insts commited each cycle
system.cpu1.commit.committed_per_cycle::8      3774906      0.82%    100.00% # Number of insts commited each cycle
system.cpu1.commit.committed_per_cycle::overflows            0      0.00%    100.00% # Number of insts commited each cycle
system.cpu1.commit.committed_per_cycle::min_value            0                       # Number of insts commited each cycle
system.cpu1.commit.committed_per_cycle::max_value            8                       # Number of insts commited each cycle
system.cpu1.commit.committed_per_cycle::total    462989030                       # Number of insts commited each cycle
system.cpu1.commit.fp_insts                        12                       # Number of committed floating point instructions.
system.cpu1.commit.function_calls             1798281                       # Number of function calls committed.
system.cpu1.commit.int_insts                116613752                       # Number of committed integer instructions.
system.cpu1.commit.loads                     30177705                       # Number of loads committed
system.cpu1.commit.membars                    4200123                       # Number of memory barriers committed
system.cpu1.commit.op_class_0::No_OpClass      4200123      3.44%      3.44% # Class of committed instruction
system.cpu1.commit.op_class_0::IntAlu        76675310     62.76%     66.20% # Class of committed instruction
system.cpu1.commit.op_class_0::IntMult             44      0.00%     66.20% # Class of committed instruction
system.cpu1.commit.op_class_0::IntDiv              88      0.00%     66.20% # Class of committed instruction
system.cpu1.commit.op_class_0::FloatAdd             0      0.00%     66.20% # Class of committed instruction
system.cpu1.commit.op_class_0::FloatCmp             0      0.00%     66.20% # Class of committed instruction
system.cpu1.commit.op_class_0::FloatCvt             0      0.00%     66.20% # Class of committed instruction
system.cpu1.commit.op_class_0::FloatMult            0      0.00%     66.20% # Class of committed instruction
system.cpu1.commit.op_class_0::FloatMultAcc            0      0.00%     66.20% # Class of committed instruction
system.cpu1.commit.op_class_0::FloatDiv             0      0.00%     66.20% # Class of committed instruction
system.cpu1.commit.op_class_0::FloatMisc            0      0.00%     66.20% # Class of committed instruction
system.cpu1.commit.op_class_0::FloatSqrt            0      0.00%     66.20% # Class of committed instruction
system.cpu1.commit.op_class_0::SimdAdd              0      0.00%     66.20% # Class of committed instruction
system.cpu1.commit.op_class_0::SimdAddAcc            0      0.00%     66.20% # Class of committed instruction
system.cpu1.commit.op_class_0::SimdAlu              0      0.00%     66.20% # Class of committed instruction
system.cpu1.commit.op_class_0::SimdCmp              0      0.00%     66.20% # Class of committed instruction
system.cpu1.commit.op_class_0::SimdCvt              0      0.00%     66.20% # Class of committed instruction
system.cpu1.commit.op_class_0::SimdMisc             0      0.00%     66.20% # Class of committed instruction
system.cpu1.commit.op_class_0::SimdMult             0      0.00%     66.20% # Class of committed instruction
system.cpu1.commit.op_class_0::SimdMultAcc            0      0.00%     66.20% # Class of committed instruction
system.cpu1.commit.op_class_0::SimdShift            0      0.00%     66.20% # Class of committed instruction
system.cpu1.commit.op_class_0::SimdShiftAcc            0      0.00%     66.20% # Class of committed instruction
system.cpu1.commit.op_class_0::SimdDiv              0      0.00%     66.20% # Class of committed instruction
system.cpu1.commit.op_class_0::SimdSqrt             0      0.00%     66.20% # Class of committed instruction
system.cpu1.commit.op_class_0::SimdFloatAdd            0      0.00%     66.20% # Class of committed instruction
system.cpu1.commit.op_class_0::SimdFloatAlu            0      0.00%     66.20% # Class of committed instruction
system.cpu1.commit.op_class_0::SimdFloatCmp            0      0.00%     66.20% # Class of committed instruction
system.cpu1.commit.op_class_0::SimdFloatCvt            0      0.00%     66.20% # Class of committed instruction
system.cpu1.commit.op_class_0::SimdFloatDiv            0      0.00%     66.20% # Class of committed instruction
system.cpu1.commit.op_class_0::SimdFloatMisc            0      0.00%     66.20% # Class of committed instruction
system.cpu1.commit.op_class_0::SimdFloatMult            0      0.00%     66.20% # Class of committed instruction
system.cpu1.commit.op_class_0::SimdFloatMultAcc            0      0.00%     66.20% # Class of committed instruction
system.cpu1.commit.op_class_0::SimdFloatSqrt            0      0.00%     66.20% # Class of committed instruction
system.cpu1.commit.op_class_0::SimdReduceAdd            0      0.00%     66.20% # Class of committed instruction
system.cpu1.commit.op_class_0::SimdReduceAlu            0      0.00%     66.20% # Class of committed instruction
system.cpu1.commit.op_class_0::SimdReduceCmp            0      0.00%     66.20% # Class of committed instruction
system.cpu1.commit.op_class_0::SimdFloatReduceAdd            0      0.00%     66.20% # Class of committed instruction
system.cpu1.commit.op_class_0::SimdFloatReduceCmp            0      0.00%     66.20% # Class of committed instruction
system.cpu1.commit.op_class_0::SimdAes              0      0.00%     66.20% # Class of committed instruction
system.cpu1.commit.op_class_0::SimdAesMix            0      0.00%     66.20% # Class of committed instruction
system.cpu1.commit.op_class_0::SimdSha1Hash            0      0.00%     66.20% # Class of committed instruction
system.cpu1.commit.op_class_0::SimdSha1Hash2            0      0.00%     66.20% # Class of committed instruction
system.cpu1.commit.op_class_0::SimdSha256Hash            0      0.00%     66.20% # Class of committed instruction
system.cpu1.commit.op_class_0::SimdSha256Hash2            0      0.00%     66.20% # Class of committed instruction
system.cpu1.commit.op_class_0::SimdShaSigma2            0      0.00%     66.20% # Class of committed instruction
system.cpu1.commit.op_class_0::SimdShaSigma3            0      0.00%     66.20% # Class of committed instruction
system.cpu1.commit.op_class_0::SimdPredAlu            0      0.00%     66.20% # Class of committed instruction
system.cpu1.commit.op_class_0::MemRead       32277706     26.42%     92.61% # Class of committed instruction
system.cpu1.commit.op_class_0::MemWrite       9023521      7.39%    100.00% # Class of committed instruction
system.cpu1.commit.op_class_0::FloatMemRead            0      0.00%    100.00% # Class of committed instruction
system.cpu1.commit.op_class_0::FloatMemWrite           12      0.00%    100.00% # Class of committed instruction
system.cpu1.commit.op_class_0::IprAccess            0      0.00%    100.00% # Class of committed instruction
system.cpu1.commit.op_class_0::InstPrefetch            0      0.00%    100.00% # Class of committed instruction
system.cpu1.commit.op_class_0::total        122176804                       # Class of committed instruction
system.cpu1.commit.refs                      41301239                       # Number of memory references committed
system.cpu1.commit.swp_count                        0                       # Number of s/w prefetches committed
system.cpu1.commit.vec_insts                        0                       # Number of committed Vector instructions.
system.cpu1.committedInsts                  120076625                       # Number of Instructions Simulated
system.cpu1.committedOps                    122176804                       # Number of Ops (including micro ops) Simulated
system.cpu1.cpi                              3.895598                       # CPI: Cycles Per Instruction
system.cpu1.cpi_total                        3.895598                       # CPI: Total CPI of All Threads
system.cpu1.decode.BlockedCycles            370043406                       # Number of cycles decode is blocked
system.cpu1.decode.BranchMispred               809684                       # Number of times decode detected a branch misprediction
system.cpu1.decode.BranchResolved            19699904                       # Number of times decode resolved a branch
system.cpu1.decode.DecodedInsts             145657445                       # Number of instructions handled by decode
system.cpu1.decode.IdleCycles                22463124                       # Number of cycles decode is idle
system.cpu1.decode.RunCycles                 66784724                       # Number of cycles decode is running
system.cpu1.decode.SquashCycles               1987075                       # Number of cycles decode is squashing
system.cpu1.decode.SquashedInsts              1337430                       # Number of squashed instructions handled by decode
system.cpu1.decode.UnblockCycles              5015776                       # Number of cycles decode is unblocking
system.cpu1.dtb.accesses                            0                       # DTB accesses
system.cpu1.dtb.hits                                0                       # DTB hits
system.cpu1.dtb.misses                              0                       # DTB misses
system.cpu1.dtb.read_accesses                       0                       # DTB read accesses
system.cpu1.dtb.read_hits                           0                       # DTB read hits
system.cpu1.dtb.read_misses                         0                       # DTB read misses
system.cpu1.dtb.write_accesses                      0                       # DTB write accesses
system.cpu1.dtb.write_hits                          0                       # DTB write hits
system.cpu1.dtb.write_misses                        0                       # DTB write misses
system.cpu1.fetch.Branches                   35388219                       # Number of branches that fetch encountered
system.cpu1.fetch.CacheLines                 20788298                       # Number of cache lines fetched
system.cpu1.fetch.Cycles                    440765641                       # Number of cycles fetch has run and was not squashing or blocked
system.cpu1.fetch.IcacheSquashes               408437                       # Number of outstanding Icache misses that were squashed
system.cpu1.fetch.Insts                     150749955                       # Number of instructions fetch has processed
system.cpu1.fetch.MiscStallCycles                   3                       # Number of cycles fetch has spent waiting on interrupts, or bad addresses, or out of MSHRs
system.cpu1.fetch.PendingTrapStallCycles           15                       # Number of stall cycles due to pending traps
system.cpu1.fetch.SquashCycles                5585922                       # Number of cycles fetch has spent squashing
system.cpu1.fetch.branchRate                 0.075653                       # Number of branch fetches per cycle
system.cpu1.fetch.icacheStallCycles          22735485                       # Number of cycles fetch is stalled on an Icache miss
system.cpu1.fetch.predictedBranches          21816189                       # Number of branches that fetch has predicted taken
system.cpu1.fetch.rate                       0.322274                       # Number of inst fetches per cycle
system.cpu1.fetch.rateDist::samples         466294105                       # Number of instructions fetched each cycle (Total)
system.cpu1.fetch.rateDist::mean             0.327800                       # Number of instructions fetched each cycle (Total)
system.cpu1.fetch.rateDist::stdev            0.766003                       # Number of instructions fetched each cycle (Total)
system.cpu1.fetch.rateDist::underflows              0      0.00%      0.00% # Number of instructions fetched each cycle (Total)
system.cpu1.fetch.rateDist::0               369864738     79.32%     79.32% # Number of instructions fetched each cycle (Total)
system.cpu1.fetch.rateDist::1                62184279     13.34%     92.66% # Number of instructions fetched each cycle (Total)
system.cpu1.fetch.rateDist::2                17260120      3.70%     96.36% # Number of instructions fetched each cycle (Total)
system.cpu1.fetch.rateDist::3                13111204      2.81%     99.17% # Number of instructions fetched each cycle (Total)
system.cpu1.fetch.rateDist::4                 2876230      0.62%     99.79% # Number of instructions fetched each cycle (Total)
system.cpu1.fetch.rateDist::5                  677452      0.15%     99.93% # Number of instructions fetched each cycle (Total)
system.cpu1.fetch.rateDist::6                  319975      0.07%    100.00% # Number of instructions fetched each cycle (Total)
system.cpu1.fetch.rateDist::7                       7      0.00%    100.00% # Number of instructions fetched each cycle (Total)
system.cpu1.fetch.rateDist::8                     100      0.00%    100.00% # Number of instructions fetched each cycle (Total)
system.cpu1.fetch.rateDist::overflows               0      0.00%    100.00% # Number of instructions fetched each cycle (Total)
system.cpu1.fetch.rateDist::min_value               0                       # Number of instructions fetched each cycle (Total)
system.cpu1.fetch.rateDist::max_value               8                       # Number of instructions fetched each cycle (Total)
system.cpu1.fetch.rateDist::total           466294105                       # Number of instructions fetched each cycle (Total)
system.cpu1.fp_regfile_reads                       12                       # number of floating regfile reads
system.cpu1.idleCycles                        1476119                       # Total number of cycles that the CPU has spent unscheduled due to idling
system.cpu1.iew.branchMispredicts             2057529                       # Number of branch mispredicts detected at execute
system.cpu1.iew.exec_branches                30514658                       # Number of branches executed
system.cpu1.iew.exec_nop                            0                       # number of nop insts executed
system.cpu1.iew.exec_rate                    0.284642                       # Inst execution rate
system.cpu1.iew.exec_refs                    45333792                       # number of memory reference insts executed
system.cpu1.iew.exec_stores                  11526169                       # Number of stores executed
system.cpu1.iew.exec_swp                            0                       # number of swp insts executed
system.cpu1.iew.iewBlockCycles              308023689                       # Number of cycles IEW is blocking
system.cpu1.iew.iewDispLoadInsts             34336984                       # Number of dispatched load instructions
system.cpu1.iew.iewDispNonSpecInsts           2100687                       # Number of dispatched non-speculative instructions
system.cpu1.iew.iewDispSquashedInsts          2355821                       # Number of squashed instructions skipped by dispatch
system.cpu1.iew.iewDispStoreInsts            11963203                       # Number of dispatched store instructions
system.cpu1.iew.iewDispatchedInsts          138137844                       # Number of instructions dispatched to IQ
system.cpu1.iew.iewExecLoadInsts             33807623                       # Number of load instructions executed
system.cpu1.iew.iewExecSquashedInsts          1891101                       # Number of squashed instructions skipped in execute
system.cpu1.iew.iewExecutedInsts            133146869                       # Number of executed instructions
system.cpu1.iew.iewIQFullEvents               1603283                       # Number of times the IQ has become full, causing a stall
system.cpu1.iew.iewIdleCycles                       0                       # Number of cycles IEW is idle
system.cpu1.iew.iewLSQFullEvents              7048901                       # Number of times the LSQ has become full, causing a stall
system.cpu1.iew.iewSquashCycles               1987075                       # Number of cycles IEW is squashing
system.cpu1.iew.iewUnblockCycles             11348056                       # Number of cycles IEW is unblocking
system.cpu1.iew.lsq.thread0.blockedLoads            0                       # Number of blocked loads due to partial load-store forwarding
system.cpu1.iew.lsq.thread0.cacheBlocked        84493                       # Number of times an access to memory failed due to the cache being blocked
system.cpu1.iew.lsq.thread0.forwLoads          907019                       # Number of loads that had data forwarded from stores
system.cpu1.iew.lsq.thread0.ignoredResponses        45154                       # Number of memory responses ignored because the instruction is squashed
system.cpu1.iew.lsq.thread0.invAddrLoads            0                       # Number of loads ignored due to an invalid address
system.cpu1.iew.lsq.thread0.invAddrSwpfs            0                       # Number of software prefetches ignored due to an invalid address
system.cpu1.iew.lsq.thread0.memOrderViolation         2055                       # Number of memory ordering violations
system.cpu1.iew.lsq.thread0.rescheduledLoads        15749                       # Number of loads that were rescheduled
system.cpu1.iew.lsq.thread0.squashedLoads      4159279                       # Number of loads squashed
system.cpu1.iew.lsq.thread0.squashedStores       839669                       # Number of stores squashed
system.cpu1.iew.memOrderViolationEvents          2055                       # Number of memory order violations
system.cpu1.iew.predictedNotTakenIncorrect       533649                       # Number of branches that were predicted not taken incorrectly
system.cpu1.iew.predictedTakenIncorrect       1523880                       # Number of branches that were predicted taken incorrectly
system.cpu1.iew.wb_consumers                 76591527                       # num instructions consuming a value
system.cpu1.iew.wb_count                    131659091                       # cumulative count of insts written-back
system.cpu1.iew.wb_fanout                    0.845049                       # average fanout of values written-back
system.cpu1.iew.wb_producers                 64723590                       # num instructions producing a value
system.cpu1.iew.wb_rate                      0.281461                       # insts written-back per cycle
system.cpu1.iew.wb_sent                     131723310                       # cumulative count of insts sent to commit
system.cpu1.int_regfile_reads               168936645                       # number of integer regfile reads
system.cpu1.int_regfile_writes               88599816                       # number of integer regfile writes
system.cpu1.ipc                              0.256700                       # IPC: Instructions Per Cycle
system.cpu1.ipc_total                        0.256700                       # IPC: Total IPC of All Threads
system.cpu1.iq.FU_type_0::No_OpClass          4200233      3.11%      3.11% # Type of FU issued
system.cpu1.iq.FU_type_0::IntAlu             85009553     62.95%     66.06% # Type of FU issued
system.cpu1.iq.FU_type_0::IntMult                  48      0.00%     66.06% # Type of FU issued
system.cpu1.iq.FU_type_0::IntDiv                   89      0.00%     66.06% # Type of FU issued
system.cpu1.iq.FU_type_0::FloatAdd                  0      0.00%     66.06% # Type of FU issued
system.cpu1.iq.FU_type_0::FloatCmp                  0      0.00%     66.06% # Type of FU issued
system.cpu1.iq.FU_type_0::FloatCvt                  0      0.00%     66.06% # Type of FU issued
system.cpu1.iq.FU_type_0::FloatMult                 0      0.00%     66.06% # Type of FU issued
system.cpu1.iq.FU_type_0::FloatMultAcc              0      0.00%     66.06% # Type of FU issued
system.cpu1.iq.FU_type_0::FloatDiv                  0      0.00%     66.06% # Type of FU issued
system.cpu1.iq.FU_type_0::FloatMisc                 0      0.00%     66.06% # Type of FU issued
system.cpu1.iq.FU_type_0::FloatSqrt                 0      0.00%     66.06% # Type of FU issued
system.cpu1.iq.FU_type_0::SimdAdd                   0      0.00%     66.06% # Type of FU issued
system.cpu1.iq.FU_type_0::SimdAddAcc                0      0.00%     66.06% # Type of FU issued
system.cpu1.iq.FU_type_0::SimdAlu                   0      0.00%     66.06% # Type of FU issued
system.cpu1.iq.FU_type_0::SimdCmp                   0      0.00%     66.06% # Type of FU issued
system.cpu1.iq.FU_type_0::SimdCvt                   0      0.00%     66.06% # Type of FU issued
system.cpu1.iq.FU_type_0::SimdMisc                  0      0.00%     66.06% # Type of FU issued
system.cpu1.iq.FU_type_0::SimdMult                  0      0.00%     66.06% # Type of FU issued
system.cpu1.iq.FU_type_0::SimdMultAcc               0      0.00%     66.06% # Type of FU issued
system.cpu1.iq.FU_type_0::SimdShift                 0      0.00%     66.06% # Type of FU issued
system.cpu1.iq.FU_type_0::SimdShiftAcc              0      0.00%     66.06% # Type of FU issued
system.cpu1.iq.FU_type_0::SimdDiv                   0      0.00%     66.06% # Type of FU issued
system.cpu1.iq.FU_type_0::SimdSqrt                  0      0.00%     66.06% # Type of FU issued
system.cpu1.iq.FU_type_0::SimdFloatAdd              0      0.00%     66.06% # Type of FU issued
system.cpu1.iq.FU_type_0::SimdFloatAlu              0      0.00%     66.06% # Type of FU issued
system.cpu1.iq.FU_type_0::SimdFloatCmp              0      0.00%     66.06% # Type of FU issued
system.cpu1.iq.FU_type_0::SimdFloatCvt              0      0.00%     66.06% # Type of FU issued
system.cpu1.iq.FU_type_0::SimdFloatDiv              0      0.00%     66.06% # Type of FU issued
system.cpu1.iq.FU_type_0::SimdFloatMisc             0      0.00%     66.06% # Type of FU issued
system.cpu1.iq.FU_type_0::SimdFloatMult             0      0.00%     66.06% # Type of FU issued
system.cpu1.iq.FU_type_0::SimdFloatMultAcc            0      0.00%     66.06% # Type of FU issued
system.cpu1.iq.FU_type_0::SimdFloatSqrt             0      0.00%     66.06% # Type of FU issued
system.cpu1.iq.FU_type_0::SimdReduceAdd             0      0.00%     66.06% # Type of FU issued
system.cpu1.iq.FU_type_0::SimdReduceAlu             0      0.00%     66.06% # Type of FU issued
system.cpu1.iq.FU_type_0::SimdReduceCmp             0      0.00%     66.06% # Type of FU issued
system.cpu1.iq.FU_type_0::SimdFloatReduceAdd            0      0.00%     66.06% # Type of FU issued
system.cpu1.iq.FU_type_0::SimdFloatReduceCmp            0      0.00%     66.06% # Type of FU issued
system.cpu1.iq.FU_type_0::SimdAes                   0      0.00%     66.06% # Type of FU issued
system.cpu1.iq.FU_type_0::SimdAesMix                0      0.00%     66.06% # Type of FU issued
system.cpu1.iq.FU_type_0::SimdSha1Hash              0      0.00%     66.06% # Type of FU issued
system.cpu1.iq.FU_type_0::SimdSha1Hash2             0      0.00%     66.06% # Type of FU issued
system.cpu1.iq.FU_type_0::SimdSha256Hash            0      0.00%     66.06% # Type of FU issued
system.cpu1.iq.FU_type_0::SimdSha256Hash2            0      0.00%     66.06% # Type of FU issued
system.cpu1.iq.FU_type_0::SimdShaSigma2             0      0.00%     66.06% # Type of FU issued
system.cpu1.iq.FU_type_0::SimdShaSigma3             0      0.00%     66.06% # Type of FU issued
system.cpu1.iq.FU_type_0::SimdPredAlu               0      0.00%     66.06% # Type of FU issued
system.cpu1.iq.FU_type_0::MemRead            36304662     26.88%     92.95% # Type of FU issued
system.cpu1.iq.FU_type_0::MemWrite            9523373      7.05%    100.00% # Type of FU issued
system.cpu1.iq.FU_type_0::FloatMemRead              0      0.00%    100.00% # Type of FU issued
system.cpu1.iq.FU_type_0::FloatMemWrite            12      0.00%    100.00% # Type of FU issued
system.cpu1.iq.FU_type_0::IprAccess                 0      0.00%    100.00% # Type of FU issued
system.cpu1.iq.FU_type_0::InstPrefetch              0      0.00%    100.00% # Type of FU issued
system.cpu1.iq.FU_type_0::total             135037970                       # Type of FU issued
system.cpu1.iq.fp_alu_accesses                     15                       # Number of floating point alu accesses
system.cpu1.iq.fp_inst_queue_reads                 27                       # Number of floating instruction queue reads
system.cpu1.iq.fp_inst_queue_wakeup_accesses           12                       # Number of floating instruction queue wakeup accesses
system.cpu1.iq.fp_inst_queue_writes                12                       # Number of floating instruction queue writes
system.cpu1.iq.fu_busy_cnt                    2690884                       # FU busy when requested
system.cpu1.iq.fu_busy_rate                  0.019927                       # FU busy rate (busy events/executed inst)
system.cpu1.iq.fu_full::No_OpClass                  0      0.00%      0.00% # attempts to use FU when none available
system.cpu1.iq.fu_full::IntAlu                 434620     16.15%     16.15% # attempts to use FU when none available
system.cpu1.iq.fu_full::IntMult                     0      0.00%     16.15% # attempts to use FU when none available
system.cpu1.iq.fu_full::IntDiv                      0      0.00%     16.15% # attempts to use FU when none available
system.cpu1.iq.fu_full::FloatAdd                    0      0.00%     16.15% # attempts to use FU when none available
system.cpu1.iq.fu_full::FloatCmp                    0      0.00%     16.15% # attempts to use FU when none available
system.cpu1.iq.fu_full::FloatCvt                    0      0.00%     16.15% # attempts to use FU when none available
system.cpu1.iq.fu_full::FloatMult                   0      0.00%     16.15% # attempts to use FU when none available
system.cpu1.iq.fu_full::FloatMultAcc                0      0.00%     16.15% # attempts to use FU when none available
system.cpu1.iq.fu_full::FloatDiv                    0      0.00%     16.15% # attempts to use FU when none available
system.cpu1.iq.fu_full::FloatMisc                   0      0.00%     16.15% # attempts to use FU when none available
system.cpu1.iq.fu_full::FloatSqrt                   0      0.00%     16.15% # attempts to use FU when none available
system.cpu1.iq.fu_full::SimdAdd                     0      0.00%     16.15% # attempts to use FU when none available
system.cpu1.iq.fu_full::SimdAddAcc                  0      0.00%     16.15% # attempts to use FU when none available
system.cpu1.iq.fu_full::SimdAlu                     0      0.00%     16.15% # attempts to use FU when none available
system.cpu1.iq.fu_full::SimdCmp                     0      0.00%     16.15% # attempts to use FU when none available
system.cpu1.iq.fu_full::SimdCvt                     0      0.00%     16.15% # attempts to use FU when none available
system.cpu1.iq.fu_full::SimdMisc                    0      0.00%     16.15% # attempts to use FU when none available
system.cpu1.iq.fu_full::SimdMult                    0      0.00%     16.15% # attempts to use FU when none available
system.cpu1.iq.fu_full::SimdMultAcc                 0      0.00%     16.15% # attempts to use FU when none available
system.cpu1.iq.fu_full::SimdShift                   0      0.00%     16.15% # attempts to use FU when none available
system.cpu1.iq.fu_full::SimdShiftAcc                0      0.00%     16.15% # attempts to use FU when none available
system.cpu1.iq.fu_full::SimdDiv                     0      0.00%     16.15% # attempts to use FU when none available
system.cpu1.iq.fu_full::SimdSqrt                    0      0.00%     16.15% # attempts to use FU when none available
system.cpu1.iq.fu_full::SimdFloatAdd                0      0.00%     16.15% # attempts to use FU when none available
system.cpu1.iq.fu_full::SimdFloatAlu                0      0.00%     16.15% # attempts to use FU when none available
system.cpu1.iq.fu_full::SimdFloatCmp                0      0.00%     16.15% # attempts to use FU when none available
system.cpu1.iq.fu_full::SimdFloatCvt                0      0.00%     16.15% # attempts to use FU when none available
system.cpu1.iq.fu_full::SimdFloatDiv                0      0.00%     16.15% # attempts to use FU when none available
system.cpu1.iq.fu_full::SimdFloatMisc               0      0.00%     16.15% # attempts to use FU when none available
system.cpu1.iq.fu_full::SimdFloatMult               0      0.00%     16.15% # attempts to use FU when none available
system.cpu1.iq.fu_full::SimdFloatMultAcc            0      0.00%     16.15% # attempts to use FU when none available
system.cpu1.iq.fu_full::SimdFloatSqrt               0      0.00%     16.15% # attempts to use FU when none available
system.cpu1.iq.fu_full::SimdReduceAdd               0      0.00%     16.15% # attempts to use FU when none available
system.cpu1.iq.fu_full::SimdReduceAlu               0      0.00%     16.15% # attempts to use FU when none available
system.cpu1.iq.fu_full::SimdReduceCmp               0      0.00%     16.15% # attempts to use FU when none available
system.cpu1.iq.fu_full::SimdFloatReduceAdd            0      0.00%     16.15% # attempts to use FU when none available
system.cpu1.iq.fu_full::SimdFloatReduceCmp            0      0.00%     16.15% # attempts to use FU when none available
system.cpu1.iq.fu_full::SimdAes                     0      0.00%     16.15% # attempts to use FU when none available
system.cpu1.iq.fu_full::SimdAesMix                  0      0.00%     16.15% # attempts to use FU when none available
system.cpu1.iq.fu_full::SimdSha1Hash                0      0.00%     16.15% # attempts to use FU when none available
system.cpu1.iq.fu_full::SimdSha1Hash2               0      0.00%     16.15% # attempts to use FU when none available
system.cpu1.iq.fu_full::SimdSha256Hash              0      0.00%     16.15% # attempts to use FU when none available
system.cpu1.iq.fu_full::SimdSha256Hash2             0      0.00%     16.15% # attempts to use FU when none available
system.cpu1.iq.fu_full::SimdShaSigma2               0      0.00%     16.15% # attempts to use FU when none available
system.cpu1.iq.fu_full::SimdShaSigma3               0      0.00%     16.15% # attempts to use FU when none available
system.cpu1.iq.fu_full::SimdPredAlu                 0      0.00%     16.15% # attempts to use FU when none available
system.cpu1.iq.fu_full::MemRead               1813846     67.41%     83.56% # attempts to use FU when none available
[...]
system.mem_ctrls.bytesReadSys                   62272                       # Total read bytes from the system interface side
system.mem_ctrls.bytesWrittenSys                 5632                       # Total written bytes from the system interface side
system.mem_ctrls.avgRdBW                      2672.20                       # Average DRAM read bandwidth in MiByte/s
system.mem_ctrls.avgWrBW                       225.98                       # Average achieved write bandwidth in MiByte/s
system.mem_ctrls.avgRdBWSys                   2748.47                       # Average system read bandwidth in MiByte/s
system.mem_ctrls.avgWrBWSys                    248.58                       # Average system write bandwidth in MiByte/s
system.mem_ctrls.peakBW                      12800.00                       # Theoretical peak bandwidth in MiByte/s
system.mem_ctrls.busUtil                        22.64                       # Data bus utilization in percentage
system.mem_ctrls.busUtilRead                    20.88                       # Data bus utilization in percentage for reads
system.mem_ctrls.busUtilWrite                    1.77                       # Data bus utilization in percentage for writes
system.mem_ctrls.totGap                      22618500                       # Total gap between requests
system.mem_ctrls.avgGap                      21318.10                       # Average gap between requests
system.mem_ctrls.masterReadBytes::.cpu0.inst        12160                       # Per-master bytes read from memory
system.mem_ctrls.masterReadBytes::.cpu0.data        10816                       # Per-master bytes read from memory
system.mem_ctrls.masterReadBytes::.l2.prefetcher        37568                       # Per-master bytes read from memory
system.mem_ctrls.masterWriteBytes::.writebacks         5120                       # Per-master bytes write to memory
system.mem_ctrls.masterReadRate::.cpu0.inst 536699474.776007413864                       # Per-master bytes read from memory rate (Bytes/sec)
system.mem_ctrls.masterReadRate::.cpu0.data 477380059.142869770527                       # Per-master bytes read from memory rate (Bytes/sec)
system.mem_ctrls.masterReadRate::.l2.prefetcher 1658118903.650086164474                       # Per-master bytes read from memory rate (Bytes/sec)
system.mem_ctrls.masterWriteRate::.writebacks 225978726.221476793289                       # Per-master bytes write to memory rate (Bytes/sec)
system.mem_ctrls.masterReadAccesses::.cpu0.inst          190                       # Per-master read serviced memory accesses
system.mem_ctrls.masterReadAccesses::.cpu0.data          192                       # Per-master read serviced memory accesses
system.mem_ctrls.masterReadAccesses::.l2.prefetcher          591                       # Per-master read serviced memory accesses
system.mem_ctrls.masterWriteAccesses::.writebacks           88                       # Per-master write serviced memory accesses
system.mem_ctrls.masterReadTotalLat::.cpu0.inst      8073008                       # Per-master read total memory access latency
system.mem_ctrls.masterReadTotalLat::.cpu0.data      7810006                       # Per-master read total memory access latency
system.mem_ctrls.masterReadTotalLat::.l2.prefetcher     23590751                       # Per-master read total memory access latency
system.mem_ctrls.masterWriteTotalLat::.writebacks    569569750                       # Per-master write total memory access latency
system.mem_ctrls.masterReadAvgLat::.cpu0.inst     42489.52                       # Per-master read average memory access latency
system.mem_ctrls.masterReadAvgLat::.cpu0.data     40677.11                       # Per-master read average memory access latency
system.mem_ctrls.masterReadAvgLat::.l2.prefetcher     39916.67                       # Per-master read average memory access latency
system.mem_ctrls.masterWriteAvgLat::.writebacks   6472383.52                       # Per-master write average memory access latency
system.mem_ctrls.pageHitRate                    82.81                       # Row buffer hit rate, read and write combined
system.mem_ctrls.rank1.actEnergy               464100                       # Energy for activate commands per rank (pJ)
system.mem_ctrls.rank1.preEnergy               258060                       # Energy for precharge commands per rank (pJ)
system.mem_ctrls.rank1.readEnergy             2456160                       # Energy for read commands per rank (pJ)
system.mem_ctrls.rank1.writeEnergy              88740                       # Energy for write commands per rank (pJ)
system.mem_ctrls.rank1.refreshEnergy     1843920.000000                       # Energy for refresh commands per rank (pJ)
system.mem_ctrls.rank1.actBackEnergy         10236060                       # Energy for active background per rank (pJ)
system.mem_ctrls.rank1.preBackEnergy            80640                       # Energy for precharge background per rank (pJ)
system.mem_ctrls.rank1.actPowerDownEnergy            0                       # Energy for active power-down per rank (pJ)
system.mem_ctrls.rank1.prePowerDownEnergy            0                       # Energy for precharge power-down per rank (pJ)
system.mem_ctrls.rank1.selfRefreshEnergy            0                       # Energy for self refresh per rank (pJ)
system.mem_ctrls.rank1.totalEnergy           15427680                       # Total energy per rank (pJ)
system.mem_ctrls.rank1.averagePower        680.923335                       # Core power per rank (mW)
system.mem_ctrls.rank1.totalIdleTime                0                       # Total Idle time Per DRAM Rank
system.mem_ctrls.rank1.memoryStateTime::IDLE       100000                       # Time in different power states
system.mem_ctrls.rank1.memoryStateTime::REF       780000                       # Time in different power states
system.mem_ctrls.rank1.memoryStateTime::SREF            0                       # Time in different power states
system.mem_ctrls.rank1.memoryStateTime::PRE_PDN            0                       # Time in different power states
system.mem_ctrls.rank1.memoryStateTime::ACT     21777000                       # Time in different power states
system.mem_ctrls.rank1.memoryStateTime::ACT_PDN            0                       # Time in different power states
system.mem_ctrls.rank0.actEnergy               806820                       # Energy for activate commands per rank (pJ)
system.mem_ctrls.rank0.preEnergy               440220                       # Energy for precharge commands per rank (pJ)
system.mem_ctrls.rank0.readEnergy             4298280                       # Energy for read commands per rank (pJ)
system.mem_ctrls.rank0.writeEnergy             328860                       # Energy for write commands per rank (pJ)
system.mem_ctrls.rank0.refreshEnergy     1843920.000000                       # Energy for refresh commands per rank (pJ)
system.mem_ctrls.rank0.actBackEnergy         10256580                       # Energy for active background per rank (pJ)
system.mem_ctrls.rank0.preBackEnergy            63360                       # Energy for precharge background per rank (pJ)
system.mem_ctrls.rank0.actPowerDownEnergy            0                       # Energy for active power-down per rank (pJ)
system.mem_ctrls.rank0.prePowerDownEnergy            0                       # Energy for precharge power-down per rank (pJ)
system.mem_ctrls.rank0.selfRefreshEnergy            0                       # Energy for self refresh per rank (pJ)
system.mem_ctrls.rank0.totalEnergy           18038040                       # Total energy per rank (pJ)
system.mem_ctrls.rank0.averagePower        796.135411                       # Core power per rank (mW)
system.mem_ctrls.rank0.totalIdleTime                0                       # Total Idle time Per DRAM Rank
system.mem_ctrls.rank0.memoryStateTime::IDLE        82000                       # Time in different power states
system.mem_ctrls.rank0.memoryStateTime::REF       780000                       # Time in different power states
system.mem_ctrls.rank0.memoryStateTime::SREF            0                       # Time in different power states
system.mem_ctrls.rank0.memoryStateTime::PRE_PDN            0                       # Time in different power states
system.mem_ctrls.rank0.memoryStateTime::ACT     21795000                       # Time in different power states
system.mem_ctrls.rank0.memoryStateTime::ACT_PDN            0                       # Time in different power states
system.cpu1.pwrStateClkGateDist::samples            1                       # Distribution of time spent in the clock gated state
system.cpu1.pwrStateClkGateDist::mean        22657000                       # Distribution of time spent in the clock gated state
system.cpu1.pwrStateClkGateDist::1000-5e+10            1    100.00%    100.00% # Distribution of time spent in the clock gated state
system.cpu1.pwrStateClkGateDist::min_value     22657000                       # Distribution of time spent in the clock gated state
system.cpu1.pwrStateClkGateDist::max_value     22657000                       # Distribution of time spent in the clock gated state
system.cpu1.pwrStateClkGateDist::total              1                       # Distribution of time spent in the clock gated state
system.cpu1.pwrStateResidencyTicks::CLK_GATED     22657000                       # Cumulative time (in ticks) in various power states
system.cpu1.icache.pwrStateResidencyTicks::UNDEFINED     22657000                       # Cumulative time (in ticks) in various power states
system.cpu1.icache.blocked_cycles::no_mshrs            0                       # number of cycles access was blocked
system.cpu1.icache.blocked_cycles::no_targets            0                       # number of cycles access was blocked
system.cpu1.icache.blocked::no_mshrs                0                       # number of cycles access was blocked
system.cpu1.icache.blocked::no_targets              0                       # number of cycles access was blocked
system.cpu1.icache.avg_blocked_cycles::no_mshrs          nan                       # average number of cycles each access was blocked
system.cpu1.icache.avg_blocked_cycles::no_targets          nan                       # average number of cycles each access was blocked
system.cpu1.icache.replacements                     0                       # number of replacements
system.cpu1.icache.tags.pwrStateResidencyTicks::UNDEFINED     22657000                       # Cumulative time (in ticks) in various power states
system.cpu1.icache.tags.tagsinuse                  32                       # Cycle average of tags in use
system.cpu1.icache.tags.total_refs             689569                       # Total number of references to valid blocks.
system.cpu1.icache.tags.sampled_refs               32                       # Sample count of references to valid blocks.
system.cpu1.icache.tags.avg_refs         21549.031250                       # Average number of references to valid blocks.
system.cpu1.icache.tags.warmup_cycle                0                       # Cycle when the warmup percentage was hit.
system.cpu1.icache.tags.occ_blocks::.cpu1.inst           32                       # Average occupied blocks per requestor
system.cpu1.icache.tags.occ_percent::.cpu1.inst            1                       # Average percentage of cache occupancy
system.cpu1.icache.tags.occ_percent::total            1                       # Average percentage of cache occupancy
system.cpu1.icache.tags.occ_task_id_blocks::1024           32                       # Occupied blocks per task id
system.cpu1.icache.tags.age_task_id_blocks_1024::1           20                       # Occupied blocks per task id
system.cpu1.icache.tags.age_task_id_blocks_1024::3            1                       # Occupied blocks per task id
system.cpu1.icache.tags.age_task_id_blocks_1024::4           11                       # Occupied blocks per task id
system.cpu1.icache.tags.occ_task_id_percent::1024            1                       # Percentage of cache occupancy per task id
system.cpu1.icache.tags.tag_accesses                0                       # Number of tag accesses
system.cpu1.icache.tags.data_accesses               0                       # Number of data accesses
system.cpu1.dcache.pwrStateResidencyTicks::UNDEFINED     22657000                       # Cumulative time (in ticks) in various power states
system.cpu1.dcache.blocked_cycles::no_mshrs            0                       # number of cycles access was blocked
system.cpu1.dcache.blocked_cycles::no_targets            0                       # number of cycles access was blocked
system.cpu1.dcache.blocked::no_mshrs                0                       # number of cycles access was blocked
system.cpu1.dcache.blocked::no_targets              0                       # number of cycles access was blocked
system.cpu1.dcache.avg_blocked_cycles::no_mshrs          nan                       # average number of cycles each access was blocked
system.cpu1.dcache.avg_blocked_cycles::no_targets          nan                       # average number of cycles each access was blocked
system.cpu1.dcache.replacements                     0                       # number of replacements
system.cpu1.dcache.tags.pwrStateResidencyTicks::UNDEFINED     22657000                       # Cumulative time (in ticks) in various power states
system.cpu1.dcache.tags.tagsinuse           27.575385                       # Cycle average of tags in use
system.cpu1.dcache.tags.total_refs               2367                       # Total number of references to valid blocks.
system.cpu1.dcache.tags.sampled_refs               31                       # Sample count of references to valid blocks.
system.cpu1.dcache.tags.avg_refs            76.354839                       # Average number of references to valid blocks.
system.cpu1.dcache.tags.warmup_cycle                0                       # Cycle when the warmup percentage was hit.
system.cpu1.dcache.tags.occ_blocks::.cpu1.data    27.575385                       # Average occupied blocks per requestor
system.cpu1.dcache.tags.occ_percent::.cpu1.data     0.861731                       # Average percentage of cache occupancy
system.cpu1.dcache.tags.occ_percent::total     0.861731                       # Average percentage of cache occupancy
system.cpu1.dcache.tags.occ_task_id_blocks::1024           27                       # Occupied blocks per task id
system.cpu1.dcache.tags.age_task_id_blocks_1024::1           27                       # Occupied blocks per task id
system.cpu1.dcache.tags.occ_task_id_percent::1024     0.843750                       # Percentage of cache occupancy per task id
system.cpu1.dcache.tags.tag_accesses                0                       # Number of tag accesses
system.cpu1.dcache.tags.data_accesses               0                       # Number of data accesses
system.cpu_clk_domain.clock                       500                       # Clock period in ticks
system.tol2bus.pwrStateResidencyTicks::UNDEFINED     22657000                       # Cumulative time (in ticks) in various power states
system.tol2bus.trans_dist::ReadResp               601                       # Transaction distribution
system.tol2bus.trans_dist::WritebackDirty          196                       # Transaction distribution
system.tol2bus.trans_dist::WritebackClean          520                       # Transaction distribution
system.tol2bus.trans_dist::CleanEvict            1267                       # Transaction distribution
system.tol2bus.trans_dist::HardPFReq              979                       # Transaction distribution
system.tol2bus.trans_dist::UpgradeReq               3                       # Transaction distribution
system.tol2bus.trans_dist::UpgradeResp              3                       # Transaction distribution
system.tol2bus.trans_dist::ReadExReq               27                       # Transaction distribution
system.tol2bus.trans_dist::ReadExResp              27                       # Transaction distribution
system.tol2bus.trans_dist::ReadCleanReq           368                       # Transaction distribution
system.tol2bus.trans_dist::ReadSharedReq          235                       # Transaction distribution
system.tol2bus.pkt_count_system.cpu0.icache.mem_side::system.l2.cpu_side         1100                       # Packet count per connected master and slave (bytes)
system.tol2bus.pkt_count_system.cpu0.dcache.mem_side::system.l2.cpu_side          790                       # Packet count per connected master and slave (bytes)
system.tol2bus.pkt_count::total                  1890                       # Packet count per connected master and slave (bytes)
system.tol2bus.pkt_size_system.cpu0.icache.mem_side::system.l2.cpu_side        46848                       # Cumulative packet size per connected master and slave (bytes)
system.tol2bus.pkt_size_system.cpu0.dcache.mem_side::system.l2.cpu_side        33472                       # Cumulative packet size per connected master and slave (bytes)
system.tol2bus.pkt_size::total                  80320                       # Cumulative packet size per connected master and slave (bytes)
system.tol2bus.snoops                            2336                       # Total snoops (count)
system.tol2bus.snoopTraffic                      5696                       # Total snoop traffic (bytes)
system.tol2bus.snoop_fanout::samples             2967                       # Request fanout histogram
system.tol2bus.snoop_fanout::mean            0.181665                       # Request fanout histogram
system.tol2bus.snoop_fanout::stdev           0.411845                       # Request fanout histogram
system.tol2bus.snoop_fanout::underflows             0      0.00%      0.00% # Request fanout histogram
system.tol2bus.snoop_fanout::0                   2459     82.88%     82.88% # Request fanout histogram
system.tol2bus.snoop_fanout::1                    477     16.08%     98.96% # Request fanout histogram
system.tol2bus.snoop_fanout::2                     31      1.04%    100.00% # Request fanout histogram
system.tol2bus.snoop_fanout::3                      0      0.00%    100.00% # Request fanout histogram
system.tol2bus.snoop_fanout::4                      0      0.00%    100.00% # Request fanout histogram
system.tol2bus.snoop_fanout::5                      0      0.00%    100.00% # Request fanout histogram
system.tol2bus.snoop_fanout::6                      0      0.00%    100.00% # Request fanout histogram
system.tol2bus.snoop_fanout::7                      0      0.00%    100.00% # Request fanout histogram
system.tol2bus.snoop_fanout::8                      0      0.00%    100.00% # Request fanout histogram
system.tol2bus.snoop_fanout::overflows              0      0.00%    100.00% # Request fanout histogram
system.tol2bus.snoop_fanout::min_value              0                       # Request fanout histogram
system.tol2bus.snoop_fanout::max_value              2                       # Request fanout histogram
system.tol2bus.snoop_fanout::total               2967                       # Request fanout histogram
system.tol2bus.reqLayer0.occupancy            1258500                       # Layer occupancy (ticks)
system.tol2bus.reqLayer0.utilization              5.6                       # Layer utilization (%)
system.tol2bus.respLayer1.occupancy            394500                       # Layer occupancy (ticks)
system.tol2bus.respLayer1.utilization             1.7                       # Layer utilization (%)
system.tol2bus.respLayer0.occupancy            549499                       # Layer occupancy (ticks)
system.tol2bus.respLayer0.utilization             2.4                       # Layer utilization (%)

---------- End Simulation Statistics   ----------
