Redirecting stdout to /vol1/msoyturk/gem5/results/bc/epinions.el/prefetch_IndirectMemoryPrefetcher_SecondChanceRP/output.txt
Redirecting stderr to /vol1/msoyturk/gem5/results/bc/epinions.el/prefetch_IndirectMemoryPrefetcher_SecondChanceRP/error.txt
gem5 Simulator System.  http://gem5.org
gem5 is copyrighted software; use the --copyright option for details.

gem5 compiled Apr 26 2020 13:32:47
gem5 started Apr 27 2020 17:48:59
gem5 executing on draco, pid 21289
command line: /vol1/msoyturk/gem5/build/RISCV/gem5.fast -re --outdir=/vol1/msoyturk/gem5/results/bc/epinions.el/prefetch_IndirectMemoryPrefetcher_SecondChanceRP --stdout-file=output.txt --stderr-file=error.txt /vol1/msoyturk/gem5/configs/example/my_se.py -c /vol1/msoyturk/gem5/gapbs/bc -o '-f /vol1/msoyturk/gem5/gapbs/test/graphs/epinions.el' --caches --l1d_size=2kB --l1i_size=2kB --cpu-type=DerivO3CPU -n 4 --mem-size=512MB --l2cache --l2_size=4kB --l2-hwp-type=IndirectMemoryPrefetcher --l2-replacement-policy=SecondChanceRP --l1i_mshrs=4 --l1d_mshrs=4 --l2_mshrs=20 --l1i_write_buffers=8 --l1d_write_buffers=8 --l2_write_buffers=8

info: Standard input is not a terminal, disabling listeners.
Warning: l2-hwp-type is set ( IndirectMemoryPrefetcher ), but the current l2 has a default Hardware Prefetcher of type <class 'm5.params.NullSimObject'> , using the specified by the flag option.
Global frequency set at 1000000000000 ticks per second
**** REAL SIMULATION ****
Read Time:           0.44850
Build Time:          0.08630
Graph has 75888 nodes and 508837 directed edges for degree: 6
    a                0.00010
source: 15167
    b                0.01676
    p                0.00601
Trial Time:          0.02391
    a                0.00010
source: 66430
    b                0.01700
    p                0.00616
Trial Time:          0.02434
    a                0.00010
source: 1321
    b                0.01722
    p                0.00622
Trial Time:          0.02461
    a                0.00010
source: 20546
    b                0.01675
    p                0.00606
Trial Time:          0.02396
    a                0.00010
source: 31030
    b                0.00022
    p                0.00005
Trial Time:          0.00145
    a                0.00010
source: 70363
    b                0.00019
    p                0.00002
Trial Time:          0.00141
    a                0.00010
source: 18091
    b                0.01695
    p                0.00610
Trial Time:          0.02422
    a                0.00010
source: 39112
    b                0.01720
    p                0.00630
Trial Time:          0.02468
    a                0.00010
source: 64563
    b                0.01737
    p                0.00629
Trial Time:          0.02484
    a                0.00010
source: 8459
    b                0.01670
    p                0.00605
Trial Time:          0.02393
    a                0.00009
source: 61500
    b                0.01713
    p                0.00626
Trial Time:          0.02457
    a                0.00010
source: 24539
    b                0.01760
    p                0.00635
Trial Time:          0.02513
    a                0.00010
source: 42596
    b                0.01769
    p                0.00629
Trial Time:          0.02515
    a                0.00010
source: 96
    b                0.01679
    p                0.00608
Trial Time:          0.02407
    a                0.00010
source: 23803
    b                0.01737
    p                0.00629
Trial Time:          0.02477
    a                0.00009
source: 24346
    b                0.01726
    p                0.00624
Trial Time:          0.02467
Average Time:        0.02161
Exiting @ tick 919322145500 because exiting with last active thread context
