Redirecting stdout to /vol1/msoyturk/gem5/results/sssp/dblp.el/4kB/output.txt
Redirecting stderr to /vol1/msoyturk/gem5/results/sssp/dblp.el/4kB/error.txt
gem5 Simulator System.  http://gem5.org
gem5 is copyrighted software; use the --copyright option for details.

gem5 compiled Apr 26 2020 13:32:47
gem5 started May  4 2020 02:23:32
gem5 executing on draco, pid 29759
command line: /vol1/msoyturk/gem5/build/RISCV/gem5.fast -re --outdir=/vol1/msoyturk/gem5/results/sssp/dblp.el/4kB --stdout-file=output.txt --stderr-file=error.txt /vol1/msoyturk/gem5/configs/example/my_se.py -c /vol1/msoyturk/gem5/gapbs/sssp -o '-f /vol1/msoyturk/gem5/gapbs/test/graphs/dblp.el' --caches --l1d_size=2kB --l1i_size=2kB --cpu-type=DerivO3CPU -n 4 --mem-size=512MB --l2cache --l2_size=4kB --l1i_mshrs=4 --l1d_mshrs=4 --l2_mshrs=20 --l1i_write_buffers=8 --l1d_write_buffers=8 --l2_write_buffers=8

info: Standard input is not a terminal, disabling listeners.
Global frequency set at 1000000000000 ticks per second
**** REAL SIMULATION ****
Read Time:           1.12962
Build Time:          0.26146
Graph has 425957 nodes and 1049866 directed edges for degree: 2
    0          1     0.02645
   36          1     0.00662
  114          2     0.04897
  118          1     0.00576
  120          1     0.00541
  139          1     0.01228
  143          1     0.01237
  147          1     0.02044
  150          2     0.00561
  154          1     0.01192
  156          2     0.01336
  160          1     0.00877
  166          1     0.00536
  168          1     0.00530
  176          1     0.01608
  181          1     0.00568
  182          1     0.00585
  183          1     0.01224
  184          1     0.00545
  186          1     0.00565
  187          1     0.00567
  189          1     0.00528
  191          1     0.03643
  195          1     0.00632
  204          1     0.00912
  208          1     0.00705
  211          3     0.01199
  212          1     0.00906
  214          1     0.00591
  220          1     0.00589
  221          1     0.02660
  222          1     0.00608
  223          1     0.00591
  225          2     0.01753
  227          1     0.01486
  228          1     0.00749
  229          1     0.00581
  230          5     0.00639
  234          1     0.01072
  238          2     0.00611
  239          2     0.01035
  243          1     0.00562
  245          1     0.00880
  247          1     0.00593
  248          2     0.00607
  252          2     0.02197
  254          2     0.00619
  256          4     0.02019
  260          1     0.00753
  262          3     0.00626
  265          3     0.00601
  267          2     0.01067
  268          2     0.00909
  270          2     0.00960
  271          3     0.00558
  272          1     0.00579
  274          3     0.01174
  275          1     0.00583
  276          1     0.00668
  277          1     0.03159
  279          2     0.00769
  280          1     0.00619
  282          1     0.00590
  283          2     0.01023
  284          2     0.00571
  286          1     0.00593
  289          2     0.00635
  291          1     0.01080
  292          2     0.00668
  293          1     0.00593
  294          2     0.00571
  295          2     0.00618
  298          1     0.00576
  299          1     0.00600
  300          1     0.00544
  301          1     0.01583
  302          3     0.00949
  303          2     0.01957
  304          2     0.01433
  305          1     0.01157
  307          1     0.01181
  310          1     0.00617
  311          3     0.01328
  312          1     0.00575
  313          1     0.00573
  314          1     0.00740
  316          2     0.01515
  317          4     0.01007
  318          3     0.01160
  320          1     0.00619
  321          1     0.00625
  323          2     0.01824
  324          1     0.00617
  325          1     0.00643
  326          1     0.00585
  327          3     0.00929
  328          1     0.00596
  329          2     0.00925
  332          3     0.01208
  333          2     0.02008
  334          3     0.02087
  335          3     0.01176
  338          4     0.01237
  341          4     0.01458
  343          3     0.01419
  344          2     0.01277
  345          2     0.01402
  346          1     0.00547
  347          2     0.01246
  349          5     0.01858
  350          1     0.00914
  352          2     0.01329
  353          2     0.00909
  354          2     0.00617
  355          2     0.01369
  356          3     0.01382
  357          3     0.01197
  358          2     0.01043
  359          1     0.00952
  360          3     0.00602
  362          3     0.00632
  363          1     0.00572
  364          2     0.01104
  365          1     0.00563
  366          3     0.00910
  368          3     0.00581
  369          1     0.00573
  370          1     0.01027
  371          5     0.01160
  372          2     0.01104
  373          1     0.00960
  375          1     0.00662
  376          3     0.01440
  377          1     0.00530
  378          1     0.00529
  379          4     0.00600
  380          2     0.01317
  381          2     0.00611
  382          2     0.02311
  383          1     0.01794
  385          4     0.01190
  386          2     0.00870
  387          2     0.01004
  388          2     0.01051
  389          4     0.00927
  390          1     0.01487
  391          4     0.01214
  393          2     0.00632
  394          1     0.00615
  396          2     0.00585
  397          1     0.00959
  398          3     0.00632
  399          4     0.00615
  400          3     0.00664
  401          3     0.00634
  402          1     0.01050
  403          3     0.01365
  404          1     0.00619
  405          3     0.01260
  406          1     0.01691
  407          2     0.00653
  409          5     0.01158
  410          2     0.00622
  411          1     0.00582
  413          2     0.00593
  414          1     0.00596
  415          1     0.01215
  417          3     0.00587
  418          3     0.00978
  419          1     0.00593
  420          2     0.01053
  421          2     0.01019
  422          1     0.00583
  423          2     0.01103
  424          1     0.01308
  425          1     0.00590
  426          1     0.00610
  427          2     0.00890
  428          2     0.01363
  429          3     0.00634
  430          2     0.00566
  431          2     0.01000
  432          1     0.00563
  433          3     0.01046
  434          2     0.01096
  435          2     0.01310
  436          1     0.00985
  437          3     0.00594
  438          3     0.00697
  439          1     0.00596
  441          3     0.00633
  443          1     0.00568
  444          2     0.00560
  445          1     0.01245
  446          4     0.01139
  447          3     0.01028
  448          4     0.00646
  449          2     0.00589
  450          3     0.01105
  451          1     0.00587
  452          2     0.01479
  453          3     0.01162
  454          1     0.01484
  456          3     0.00649
  457          2     0.01803
  458          2     0.00642
  459          1     0.00577
  461          1     0.01006
  462          4     0.01143
  463          3     0.01751
  464          2     0.00564
  465          2     0.00563
  466          3     0.00610
  467          4     0.01781
  468          5     0.00734
  469          2     0.00560
  470          2     0.00667
  471          3     0.01152
  472          3     0.00639
  473          3     0.00953
  474          3     0.01080
  475          5     0.00981
  476          4     0.00998
  477          2     0.00596
  478          2     0.00573
  479          3     0.01159
  480          2     0.00701
  481          2     0.00996
  482          2     0.00610
  483          1     0.00573
  484          1     0.00560
  485          2     0.00921
  486          1     0.01452
  487          5     0.01104
  489          1     0.01261
  490          3     0.00656
  491          4     0.00612
  492          1     0.01078
  493          3     0.01485
  496          2     0.00536
  497          3     0.01136
  498          4     0.03354
  499          2     0.00614
  501          2     0.00891
  502          4     0.00676
  503          1     0.00548
  505          5     0.00592
  506          2     0.00985
  507          3     0.01191
  508          3     0.00637
  509          1     0.00571
  510          2     0.01817
  511          5     0.02208
  512          1     0.01379
  513          3     0.00629
  514          2     0.00550
  515          4     0.01213
  516          2     0.01269
  517          2     0.01452
  518          3     0.02210
  519          3     0.01342
  520          1     0.01064
  521          2     0.00587
  522          3     0.00639
  523          1     0.00556
  527          4     0.01347
  528          4     0.01060
  529          2     0.00572
  530          3     0.00884
  531          5     0.01882
  532          1     0.00951
  533          4     0.01232
  534          1     0.00611
  535          4     0.00632
  537          2     0.01050
  538          1     0.00617
  539          4     0.00647
  540          1     0.00524
  541          4     0.01376
  542          2     0.00599
  543         10     0.01468
  544          3     0.01891
  545          2     0.00588
  546          2     0.00836
  547          3     0.01380
  548          3     0.00604
  549          3     0.01095
  550          4     0.01221
  551          2     0.01206
  552          2     0.00592
  553          1     0.00595
  555          2     0.00598
  556          4     0.00611
  557          1     0.01241
  558          2     0.00618
  559          4     0.01282
  560          2     0.00598
  561          1     0.01001
  562          6     0.00593
  563          1     0.00578
  564          2     0.01351
  565          1     0.00606
  566          5     0.01288
  567          4     0.00673
  568          2     0.01339
  569          3     0.00772
  570          1     0.00585
  571          2     0.00577
  572          3     0.00564
  573          2     0.00580
  574          2     0.00563
  575          1     0.00535
  576          6     0.00733
  577          2     0.00582
  578          1     0.00567
  579          1     0.00605
  581          6     0.01047
  582          2     0.00672
  583          1     0.00544
  584          3     0.01915
  585          1     0.00611
  586          6     0.01146
  587          5     0.00963
  588          3     0.01082
  589          3     0.00704
  590          2     0.03433
  591          4     0.00996
  592          6     0.01589
  594          4     0.00652
  595          1     0.00589
  597          2     0.00570
  598          2     0.00515
  599          3     0.00587
  600          1     0.00578
  601          1     0.00590
  602          1     0.00594
  603          2     0.01085
  604          3     0.00904
  605          5     0.00752
  606          3     0.01534
  607          2     0.00600
  608          3     0.00589
  609          2     0.00908
  610          2     0.00589
  611          2     0.00987
  612          1     0.01307
  614          1     0.01092
  615          3     0.00622
  616          4     0.00686
  617          2     0.01202
  618          3     0.01386
  619          5     0.00665
  622          3     0.00924
  623          5     0.01029
  624          3     0.01338
  625          2     0.00653
  626          3     0.01093
  627          4     0.02121
  628          3     0.00947
  630          4     0.00841
  631          1     0.00599
  632          1     0.00597
  633          4     0.02031
  634          1     0.01426
  635          1     0.00593
  636          1     0.00949
  637          4     0.01739
  638          1     0.00587
  640          4     0.01633
  641          3     0.01212
  642          1     0.00883
  643          2     0.01804
  644          3     0.00651
  645          1     0.00531
  646          1     0.00559
  647          3     0.00604
  648          1     0.00583
  649          1     0.00588
  650          2     0.00564
  652          4     0.02022
  653          4     0.00617
  655          3     0.01069
  656          1     0.01066
  657          1     0.00560
  658          1     0.00554
  660          1     0.00572
  661          1     0.00555
  662          2     0.00622
  663          3     0.01157
  664          3     0.00608
  665          4     0.01646
  666          2     0.00660
  667          3     0.00638
  668          1     0.01419
  669          1     0.01527
  670          1     0.00633
  671          3     0.00844
  672          2     0.00632
  674          1     0.00585
  675          2     0.00699
  677          1     0.00986
  678          3     0.01262
  679          3     0.00617
  680          4     0.00882
  681          4     0.00696
  682          7     0.01289
  683          2     0.00855
  684          1     0.00587
  685          4     0.02202
  686          4     0.01561
  687          4     0.00923
  688          3     0.01362
  690          4     0.00639
  691          1     0.00609
  692          3     0.02848
  693          2     0.00612
  694          3     0.00927
  695          3     0.02647
  696          1     0.00845
  697          6     0.01190
  698          1     0.01193
  699          7     0.01440
  700          2     0.00614
  701          3     0.01259
  702          1     0.00598
  703          3     0.00920
  704          1     0.02320
  705          3     0.01383
  706          2     0.00861
  707          3     0.00619
  708          5     0.01309
  710          6     0.01026
  711          6     0.01081
  712          3     0.01115
  713          3     0.01142
  714          6     0.01909
  715          2     0.00974
  716          1     0.00639
  717          1     0.02746
  718          2     0.01714
  719          4     0.01297
  720          1     0.01468
  721          6     0.01131
  722          3     0.02210
  723          5     0.00928
  724          3     0.01121
  725          6     0.01077
  726          1     0.00954
  727          5     0.00606
  728          3     0.00589
  729          6     0.01882
  730          4     0.01959
  731          3     0.01058
  732          3     0.00670
  733          1     0.00608
  734          5     0.01935
  735          3     0.00641
  736          2     0.00584
  737          4     0.00990
  738          2     0.00596
  739          3     0.00940
  740          2     0.01623
  741          4     0.01137
  742          4     0.00882
  743          4     0.01195
  744          5     0.01012
  745          3     0.01089
  746          3     0.00843
  747          4     0.00717
  748          3     0.00613
  749          1     0.00569
  750          6     0.00716
  751          5     0.01421
  752          5     0.01681
  753          2     0.00650
  754          3     0.00662
  755          5     0.01042
  756          5     0.01128
  757          5     0.01360
  758          1     0.00967
  759          2     0.01600
  760          7     0.04414
  761          4     0.01883
  762          4     0.00654
  763          3     0.00910
  764          4     0.00764
  765          4     0.01722
  766          2     0.00621
  767          2     0.00619
  768          3     0.01136
  769          2     0.00985
  770          4     0.01186
  771          3     0.01030
  772          3     0.02107
  773          2     0.00626
  774          4     0.01106
  775          2     0.00609
  776          2     0.01530
  777          4     0.01096
  778          5     0.02539
  779          6     0.02025
  780          2     0.00934
  781          3     0.01077
  782          2     0.00577
  783          4     0.00645
  784          5     0.00768
  786          3     0.00620
  788          6     0.01819
  789          4     0.01541
  790          5     0.01315
  791          4     0.01169
  792          2     0.01326
  793          4     0.01526
  794          2     0.00881
  796          1     0.00946
  797          3     0.01344
  798          2     0.00713
  799          4     0.01205
  800          2     0.00985
  801          3     0.01546
  802          6     0.01992
  803          3     0.00616
  804          3     0.01604
  805          3     0.01298
  806          3     0.01610
  807          4     0.01198
  808          4     0.01600
  809          4     0.00941
  810          2     0.01175
  811          2     0.00968
  812          5     0.01661
  813          5     0.01417
  814          2     0.01330
  815          2     0.01378
  816          3     0.00598
  817          5     0.00639
  818          5     0.00581
  819          2     0.00547
  820          4     0.01100
  821          2     0.00655
  822          3     0.00806
  823          1     0.00564
  824          8     0.01130
  825          1     0.01106
  826          5     0.01123
  827          8     0.04614
  828          7     0.01137
  829          2     0.00566
  830          7     0.01494
  831          5     0.00668
  832          2     0.01282
  833          2     0.00864
  834          3     0.00854
  835          3     0.01178
  836          4     0.01534
  837          5     0.00957
  838          3     0.01380
  839          6     0.02439
  840          3     0.00931
  841          6     0.02229
  842          8     0.02001
  843          2     0.00895
  844          2     0.00569
  845          4     0.00733
  846          3     0.01533
  847          8     0.01903
  848          6     0.02686
  849          3     0.00634
  850          3     0.00647
  851          3     0.01345
  852          2     0.01378
  853          5     0.01138
  854          6     0.00982
  855          7     0.01005
  856          2     0.00581
  857          2     0.00735
  858          8     0.00620
  859          5     0.01225
  860          3     0.01340
  861          5     0.01308
  862          2     0.01626
  863          3     0.00612
  864          8     0.01190
  865          8     0.01347
  866          7     0.00695
  867          5     0.01121
  868          7     0.00978
  869          7     0.00967
  870          3     0.00620
  871          5     0.01317
  872         10     0.00784
  873          5     0.00896
  874         10     0.01916
  875          4     0.01312
  876          3     0.01423
  877          5     0.00882
  878          6     0.01397
  879          7     0.01538
  880          3     0.01157
  881          2     0.00592
  882          3     0.00674
  883          5     0.00915
  884          4     0.01102
  885          3     0.01396
  886          2     0.00958
  887          3     0.01573
  888          6     0.01323
  889          3     0.00762
  890          5     0.01852
  891          5     0.01069
  892          6     0.00657
  893          2     0.00596
  894          4     0.00583
  895          7     0.02529
  896          5     0.00855
  897          7     0.00702
  898          8     0.01700
  899          3     0.00633
  900          3     0.01463
  901          4     0.00615
  902          2     0.00584
  903          3     0.01223
  904          1     0.01413
  905          3     0.00619
  906          4     0.01306
  907          4     0.01038
  908          5     0.00802
  909          5     0.00998
  910          5     0.00936
  911         10     0.02085
  912          4     0.00643
  913          3     0.00582
  914          2     0.00603
  915          5     0.02567
  916          5     0.01490
  917          4     0.01283
  918          4     0.01365
  919          8     0.01255
  920          6     0.01074
  921          8     0.01502
  922          7     0.01878
  923          8     0.01233
  924          7     0.01261
  925          6     0.00778
  926          4     0.01190
  927          5     0.00984
  928          8     0.01512
  929          3     0.00889
  930          4     0.01721
  931          3     0.01817
  932          5     0.01541
  933          4     0.01675
  934          6     0.00638
  935          5     0.01540
  936          4     0.00756
  937          2     0.00601
  938          4     0.00590
  939          5     0.01257
  940          4     0.01011
  941          7     0.02173
  942          4     0.00782
  943          2     0.01070
  944          4     0.01104
  945          3     0.01095
  946          5     0.00980
  947          4     0.00688
  948          5     0.01377
  949          3     0.01856
  950          4     0.01222
  951          4     0.00695
  952          4     0.01256
  953          7     0.01122
  954          7     0.00964
  955          5     0.01168
  956          7     0.01765
  957         12     0.01800
  958          9     0.01705
  959          7     0.01278
  960          3     0.00605
  961          7     0.01557
  962          5     0.00633
  963          9     0.01316
  964          6     0.03683
  965          4     0.01459
  966          3     0.01085
  967          4     0.00674
  968          8     0.02783
  969          3     0.00673
  970          8     0.02219
  971          5     0.00937
  972          7     0.01611
  973          3     0.01725
  974          5     0.01230
  975          3     0.01475
  976          4     0.00925
  977          7     0.02247
  978         11     0.02188
  979          6     0.01139
  980          3     0.00878
  981          3     0.01330
  982          3     0.01649
  983          6     0.00823
  984          5     0.01360
  985          7     0.02567
  986          6     0.01040
  987          5     0.01948
  988          8     0.01082
  989          5     0.00770
  990          8     0.01496
  991          8     0.01032
  992          7     0.00968
  993          7     0.01444
  994          5     0.00749
  995          5     0.01172
  996          4     0.00771
  997          4     0.01219
  998          7     0.00997
  999         11     0.02706
 1000          5     0.00914
 1001          7     0.00931
 1002          8     0.00742
 1003          6     0.01161
 1004          8     0.01793
 1005          6     0.01533
 1006          6     0.01279
 1007          4     0.01391
 1008          6     0.01143
 1009          9     0.01865
 1010          5     0.01191
 1011          4     0.00741
 1012          7     0.01916
 1013          8     0.01092
 1014          5     0.01808
 1015          6     0.01393
 1016          5     0.00756
 1017          7     0.01244
 1018          2     0.00618
 1019          6     0.01222
 1020          5     0.01238
 1021          7     0.01022
 1022          7     0.01901
 1023          4     0.00631
 1024          6     0.01171
 1025          3     0.00601
 1026          4     0.01313
 1027          9     0.01228
 1028          5     0.01223
 1029          2     0.00874
 1030          6     0.00733
 1031          8     0.01646
 1032          7     0.00653
 1033          2     0.00561
 1034          4     0.01262
 1035          5     0.01697
 1036          6     0.00654
 1037          4     0.00596
 1038          4     0.00608
 1039          5     0.00594
 1040          3     0.01123
 1041          6     0.01594
 1042          5     0.00613
 1043          8     0.01934
 1044          9     0.01289
 1045          3     0.00620
 1046          6     0.00684
 1047          6     0.01526
 1048          2     0.01411
 1049          4     0.00600
 1050          3     0.00620
 1051          5     0.01463
 1052          6     0.01975
 1053          3     0.00556
 1054          3     0.00639
 1055          6     0.02178
 1056          9     0.02081
 1057          4     0.01575
 1058          7     0.00694
 1059          7     0.01643
 1060          6     0.00956
 1061          5     0.00892
 1062          6     0.01014
 1063          6     0.01988
 1064          2     0.00589
 1065          3     0.02250
 1066          6     0.00935
 1067          9     0.01158
 1068          5     0.01770
 1069          9     0.02854
 1070         10     0.02496
 1071          1     0.00600
 1072          4     0.01223
 1073          4     0.00663
 1074          5     0.00629
 1075          5     0.01194
 1076          6     0.01551
 1077          4     0.01449
 1078          4     0.01550
 1079          4     0.00894
 1080          9     0.01251
 1081          9     0.00898
 1082          4     0.00892
 1083          3     0.00804
 1084         10     0.01101
 1085          4     0.01169
 1086          6     0.01734
 1087          5     0.01516
 1088          5     0.01430
 1089          2     0.00569
 1090          7     0.00847
 1091          2     0.01059
 1092          3     0.00599
 1093          8     0.01301
 1094          5     0.00933
 1095          4     0.00918
 1096          8     0.01065
 1097          7     0.02427
 1098          1     0.00604
 1099          4     0.01258
 1100          7     0.01383
 1101          6     0.01241
 1102          7     0.01322
 1103          4     0.00930
 1104          8     0.02204
 1105          5     0.02106
 1106         10     0.01191
 1107          8     0.00964
 1108          9     0.00910
 1109          2     0.00564
 1110          5     0.01403
 1111          5     0.00653
 1112          5     0.01471
 1113          7     0.00847
 1114          4     0.01226
 1115          4     0.00592
 1116          4     0.01326
 1117         10     0.00737
 1118          5     0.02586
 1119          7     0.02506
 1120          6     0.00650
 1121          2     0.00574
 1122          5     0.00896
 1123          3     0.01442
 1124          8     0.00803
 1125          5     0.01161
 1126          2     0.00745
 1127          5     0.01902
 1128          3     0.01321
 1129          6     0.00657
 1130          4     0.01157
 1131          4     0.01320
 1132          9     0.02294
 1133          6     0.01615
 1134          6     0.01958
 1135          2     0.00614
 1136         11     0.01652
 1137          5     0.01164
 1138          5     0.01312
 1139          4     0.01138
 1140          6     0.01322
 1141          6     0.01163
 1142          8     0.01705
 1143          7     0.00972
 1144          2     0.00607
 1145          4     0.01004
 1146          6     0.01062
 1147          6     0.01306
 1148          3     0.01435
 1149          5     0.01382
 1150          4     0.00680
 1151          5     0.01612
 1152          4     0.00626
 1153          5     0.00705
 1154          5     0.01267
 1155          6     0.00666
 1156          4     0.00613
 1157          7     0.01494
 1158          5     0.00943
 1159          4     0.01384
 1160          7     0.00843
 1161          5     0.00717
 1162          4     0.01238
 1163          3     0.00921
 1164          7     0.00674
 1165          6     0.00759
 1166          7     0.00944
 1167          7     0.00929
 1168          7     0.01173
 1169          4     0.00674
 1170          1     0.00540
 1171          4     0.01334
 1172          1     0.00589
 1173          7     0.00625
 1174          5     0.00869
 1175          2     0.00559
 1176          4     0.01676
 1177          2     0.01410
 1178          8     0.01542
 1179          7     0.01589
 1180          7     0.01332
 1181          8     0.00869
 1182          4     0.00623
 1183          2     0.00596
 1184          7     0.01637
 1185          2     0.00575
 1186          3     0.00602
 1187          9     0.01546
 1188          4     0.01014
 1189          6     0.01083
 1190          1     0.01238
 1191          4     0.00869
 1192          3     0.01271
 1193          3     0.01923
 1194          6     0.01167
 1195          7     0.00886
 1196          8     0.00734
 1197          3     0.00605
 1198          3     0.01482
 1199          4     0.00995
 1200          6     0.00644
 1201          5     0.00672
 1202          3     0.00597
 1203          3     0.00613
 1204          5     0.01087
 1205          5     0.00975
 1206          7     0.00917
 1207          7     0.02810
 1208          7     0.01360
 1209          6     0.00921
 1210          3     0.01133
 1211          6     0.00825
 1212          4     0.01455
 1213          4     0.00605
 1214          3     0.00568
 1215          4     0.01240
 1216          8     0.01050
 1217          5     0.01615
 1218          5     0.00636
 1219          2     0.00589
 1220          4     0.00872
 1221          3     0.00600
 1222          4     0.01395
 1223          6     0.00683
 1224          4     0.00865
 1225          5     0.00624
 1226          5     0.00580
 1227          3     0.00579
 1228          2     0.00595
 1229          2     0.00596
 1230          8     0.01451
 1231          3     0.00572
 1232          5     0.00633
 1233          9     0.00696
 1234          9     0.01329
 1235          7     0.01307
 1236          3     0.01109
 1237          2     0.01003
 1238          6     0.00626
 1239          1     0.00593
 1240          3     0.01393
 1241          7     0.01286
 1242          1     0.00587
 1243          4     0.00592
 1244          4     0.00615
 1245          1     0.00560
 1246          8     0.01009
 1247          8     0.00680
 1248          2     0.00585
 1249          2     0.00537
 1250          1     0.00576
 1251          7     0.01192
 1252          5     0.01590
 1253          1     0.00564
 1254          3     0.00555
 1255          2     0.00552
 1256          4     0.00606
 1257          3     0.01373
 1258          4     0.01079
 1259          3     0.01117
 1261          4     0.00687
 1262          2     0.00579
 1263          3     0.01134
 1264          1     0.00625
 1265          2     0.00610
 1266          4     0.01239
 1267          1     0.00588
 1268          6     0.00975
 1269          1     0.00846
 1270          6     0.05088
 1271          1     0.00535
 1272          2     0.01474
 1273          5     0.00676
 1274          1     0.00547
 1275          1     0.00573
 1276          3     0.00590
 1277          4     0.01681
 1278          6     0.01134
 1279          5     0.00583
 1280          4     0.00898
 1281          5     0.00616
 1282          1     0.00574
 1283          4     0.00617
 1284          6     0.01170
 1285          1     0.00554
 1286          6     0.02079
 1287          4     0.00634
 1288          6     0.00653
 1289          1     0.00575
 1291          5     0.01390
 1292          4     0.00621
 1293          1     0.00592
 1294          4     0.00971
 1295          5     0.01133
 1296          3     0.00626
 1297          3     0.01022
 1298          2     0.00604
 1299          2     0.00750
 1300          1     0.00577
 1301          3     0.00596
 1302          3     0.00584
 1303          4     0.01151
 1304          2     0.00712
 1305          5     0.01192
 1306          4     0.01052
 1307          2     0.01410
 1308          3     0.00898
 1309          8     0.01673
 1310          4     0.00636
 1311          7     0.01648
 1312          3     0.00577
 1313          1     0.00584
 1314          1     0.00587
 1315          1     0.00562
 1316          5     0.01201
 1317          5     0.00639
 1318          3     0.00580
 1319          1     0.00581
 1320          3     0.00867
 1321          1     0.01362
 1322          2     0.00587
 1323          1     0.00550
 1324          1     0.00578
 1325          2     0.00607
 1326          3     0.00541
 1327          3     0.00594
 1328          5     0.00631
 1329          4     0.00616
 1330          3     0.00555
 1331          2     0.00866
 1332          3     0.00614
 1333          3     0.00593
 1334          3     0.00577
 1335          1     0.00563
 1336          1     0.01144
 1337          4     0.00617
 1338          1     0.00568
 1339          2     0.00588
 1340          4     0.01125
 1341          3     0.01300
 1342          3     0.01115
 1343          3     0.01256
 1344          3     0.00617
 1345          1     0.00571
 1346          5     0.00610
 1347          2     0.00576
 1348          2     0.01518
 1349          4     0.00624
 1350          1     0.00701
 1351          2     0.00594
 1352          4     0.00917
 1353          2     0.00574
 1354          1     0.00512
 1355          3     0.01201
 1356          2     0.00587
 1357          2     0.00567
 1358          3     0.00941
 1359          2     0.00554
 1360          1     0.00582
 1361          1     0.00602
 1362          2     0.00595
 1363          3     0.01459
 1365          3     0.00619
 1366          5     0.00604
 1367          2     0.00892
 1368          4     0.01167
 1369          1     0.00593
 1370          2     0.00613
 1371          1     0.00541
 1372          2     0.00565
 1373          1     0.00633
 1374          2     0.00595
 1375          2     0.00936
 1376          2     0.00622
 1377          4     0.00597
 1378          2     0.00572
 1379          1     0.01579
 1380          3     0.01706
 1382          1     0.01102
 1383          1     0.00588
 1385          1     0.00576
 1386          4     0.00930
 1387          1     0.00576
 1388          2     0.00549
 1389          3     0.01389
 1391          1     0.00576
 1392          3     0.00986
 1393          5     0.00997
 1394          5     0.00975
 1395          4     0.01116
 1396          1     0.01000
 1397          2     0.00630
 1398          2     0.00604
 1399          2     0.00564
 1400          1     0.00961
 1401          2     0.00588
 1402          1     0.00561
 1403          3     0.01583
 1404          4     0.00596
 1405          2     0.00566
 1406          1     0.01077
 1407          1     0.00587
 1408          2     0.01158
 1409          5     0.00648
 1410          2     0.00925
 1411          2     0.00563
 1412          3     0.00619
 1414          4     0.01065
 1415          1     0.00573
 1416          3     0.00588
 1417          3     0.00729
 1418          2     0.00586
 1420          2     0.01952
 1421          2     0.00930
 1422          3     0.00606
 1423          2     0.00980
 1424          2     0.00594
 1425          3     0.00592
 1426          2     0.00554
 1427          1     0.00581
 1428          1     0.00587
 1431          4     0.01383
 1432          1     0.00609
 1433          1     0.00557
 1434          1     0.00585
 1435          2     0.00575
 1436          4     0.01054
 1438          1     0.00571
 1440          4     0.01153
 1441          2     0.00624
 1442          1     0.00550
 1443          3     0.00584
 1444          4     0.00625
 1447          1     0.00552
 1448          1     0.00591
 1449          1     0.00576
 1450          2     0.01030
 1452          1     0.00552
 1453          2     0.00565
 1454          2     0.00595
 1456          1     0.00928
 1457          1     0.00541
 1458          2     0.00593
 1459          2     0.00593
 1460          4     0.00594
 1461          2     0.01124
 1462          3     0.00743
 1463          4     0.01375
 1464          1     0.00576
 1465          1     0.00899
 1467          1     0.01078
 1468          3     0.01242
 1471          2     0.00612
 1472          2     0.01401
 1473          2     0.00682
 1474          1     0.00562
 1475          2     0.01206
 1476          1     0.00540
 1477          2     0.00615
 1478          3     0.00578
 1479          1     0.00576
 1480          1     0.00613
 1482          4     0.00620
 1483          1     0.00537
 1484          3     0.01204
 1485          1     0.00747
 1486          2     0.01166
 1487          4     0.00916
 1490          2     0.00618
 1491          1     0.00590
 1494          1     0.00551
 1498          1     0.00716
 1499          1     0.00571
 1500          1     0.00557
 1501          2     0.00902
 1502          3     0.00638
 1504          1     0.00585
 1505          1     0.00598
 1506          1     0.00554
 1507          2     0.00979
 1509          1     0.00571
 1510          1     0.00563
 1511          2     0.00599
 1512          1     0.00566
 1513          2     0.01346
 1514          1     0.00558
 1515          2     0.00594
 1517          1     0.00565
 1519          2     0.01405
 1520          1     0.00560
 1521          4     0.01255
 1524          1     0.00894
 1525          5     0.01619
 1526          1     0.00586
 1527          3     0.00642
 1528          3     0.00554
 1530          2     0.00554
 1531          3     0.00940
 1532          2     0.00550
 1534          3     0.00945
 1535          2     0.00613
 1537          1     0.00613
 1539          2     0.00579
 1541          1     0.00596
 1544          3     0.00952
 1546          1     0.00549
 1551          2     0.01136
 1553          1     0.00577
 1555          1     0.00543
 1559          4     0.00782
 1560          1     0.00591
 1561          3     0.00594
 1565          1     0.00543
 1567          1     0.00535
 1568          1     0.01130
 1569          3     0.01020
 1570          2     0.00638
 1571          2     0.00552
 1572          3     0.00725
 1573          1     0.01012
 1574          1     0.00951
 1575          1     0.00583
 1577          2     0.00604
 1578          1     0.00738
 1579          2     0.00620
 1581          1     0.00545
 1583          2     0.00613
 1585          1     0.00971
 1586          1     0.01086
 1587          1     0.00560
 1588          2     0.00575
 1589          1     0.00587
 1590          1     0.00595
 1591          2     0.00603
 1592          2     0.00602
 1594          1     0.00531
 1595          1     0.01159
 1596          2     0.00529
 1597          2     0.01140
 1601          2     0.00623
 1602          2     0.01341
 1603          2     0.00579
 1604          2     0.00577
 1605          1     0.00598
 1611          1     0.00564
 1615          1     0.00606
 1617          1     0.00605
 1621          2     0.01069
 1622          1     0.00586
 1623          1     0.00914
 1624          1     0.00889
 1625          1     0.00573
 1626          1     0.00549
 1628          1     0.00536
 1629          3     0.01155
 1631          1     0.00610
 1633          2     0.00766
 1634          1     0.00616
 1635          2     0.01163
 1636          1     0.00576
 1637          1     0.00832
 1642          2     0.00609
 1644          1     0.00720
 1647          1     0.00970
 1649          1     0.00598
 1650          1     0.00591
 1651          1     0.00563
 1652          2     0.00598
 1653          1     0.00566
 1654          1     0.00580
 1658          1     0.00983
 1659          1     0.01005
 1661          2     0.00595
 1664          1     0.01141
 1668          1     0.00562
 1670          1     0.00628
 1671          2     0.00583
 1672          1     0.00595
 1673          1     0.00605
 1675          1     0.01058
 1676          1     0.00601
 1679          2     0.01251
 1680          1     0.00607
 1681          1     0.00585
 1683          1     0.00591
 1686          1     0.00549
 1687          1     0.00544
 1688          1     0.00550
 1689          1     0.01006
 1690          1     0.00564
 1693          1     0.00539
 1694          1     0.00641
 1695          1     0.00640
 1697          1     0.00645
 1702          1     0.00958
 1704          1     0.00615
 1706          2     0.00624
 1707          1     0.01091
 1708          1     0.00649
 1711          1     0.00627
 1712          2     0.01252
 1714          1     0.00555
 1715          1     0.00571
 1717          1     0.00601
 1718          1     0.00600
 1721          1     0.00634
 1726          2     0.00612
 1729          2     0.01010
 1735          1     0.00994
 1740          1     0.01213
 1741          1     0.00636
 1745          1     0.00958
 1749          1     0.00613
 1750          1     0.00594
 1753          1     0.00562
 1762          1     0.00575
 1763          1     0.00564
 1765          3     0.00640
 1771          2     0.00885
 1772          1     0.00579
 1773          2     0.01068
 1775          1     0.00564
 1778          1     0.00610
 1779          1     0.00868
 1784          1     0.00562
 1785          1     0.00572
 1786          2     0.00581
 1789          1     0.00608
 1790          1     0.00581
 1791          1     0.00577
 1793          1     0.00586
 1796          1     0.00593
 1798          1     0.00586
 1799          1     0.00584
 1805          1     0.00652
 1818          1     0.00618
 1819          2     0.00595
 1826          1     0.00593
 1832          1     0.00601
 1846          1     0.00565
 1847          1     0.00607
 1848          1     0.00629
 1849          2     0.00582
 1851          1     0.00578
 1857          1     0.00637
 1860          1     0.00583
 1866          1     0.00623
 1871          1     0.05136
 1879          1     0.00597
 1883          1     0.00594
 1888          2     0.01036
 1901          2     0.00659
 1902          1     0.00565
 1907          1     0.00578
 1908          1     0.00628
 1914          1     0.00618
 1944          1     0.01031
 1950          1     0.00578
 1958          1     0.00658
 1961          1     0.00665
 2036          1     0.00545
 2044          1     0.00606
 2116          1     0.01043
 2175          1     0.00621
 2269          1     0.00943
 2318          1     0.01467
 2365          1     0.00602
 2375          1     0.01060
 2510          1     0.00604
 2518          1     0.00621
 2555          1     0.00562
 2569          1     0.00524
took 1390 iterations
Trial Time:          0.04045
    0          1     0.01473
   59          1     0.00547
took 2 iterations
Trial Time:          0.00051
    0          1     0.01640
  127          1     0.00506
took 2 iterations
Trial Time:          0.00051
    0          1     0.02726
   63          1     0.01220
  101          1     0.00603
  107          1     0.00528
  111          1     0.01190
  126          1     0.01101
  182          1     0.01054
  184          2     0.00673
  187          1     0.00534
  188          1     0.00528
  196          1     0.00507
  204          1     0.00925
  205          1     0.00588
  231          1     0.00511
  238          1     0.00570
  250          1     0.00603
  318          1     0.00574
  322          1     0.00594
  341          1     0.00493
took 19 iterations
Trial Time:          0.00097
    0          1     0.01538
   15          1     0.00540
took 2 iterations
Trial Time:          0.00050
    0          1     0.01931
   21          1     0.05291
   24          1     0.00904
   32          1     0.02320
   34          1     0.01352
   46          1     0.01757
   48          1     0.03513
   53          1     0.00655
   55          1     0.01634
   60          2     0.01616
   63          1     0.02312
   65          1     0.00656
   66          2     0.01428
   67          3     0.01870
   68          2     0.01968
   69          1     0.01731
   70          1     0.01042
   71          1     0.00623
   72          1     0.01829
   73          1     0.02830
   74          3     0.01593
   76          1     0.01051
   78          1     0.01230
   79          1     0.00884
   81          2     0.01134
   82          1     0.00584
   83          1     0.00543
   86          1     0.00596
   87          1     0.00582
   88          1     0.00571
   89          1     0.01164
   91          1     0.01561
   92          2     0.01057
   93          1     0.00747
   95          2     0.01148
   97          1     0.00649
   98          1     0.01573
   99          1     0.01727
  100          1     0.00951
  101          1     0.00950
  102          1     0.00562
  104          3     0.00727
  106          3     0.00588
  108          1     0.00576
  110          1     0.00577
  111          2     0.01557
  112          1     0.00593
  113          1     0.00588
  114          2     0.05019
  116          2     0.00746
  119          2     0.01034
  121          3     0.01148
  122          2     0.00870
  124          1     0.00585
  125          2     0.00771
  126          2     0.02745
  127          2     0.00648
  128          2     0.00612
  130          1     0.00578
  131          2     0.01389
  132          2     0.00563
  133          5     0.02027
  134          4     0.00926
  135          1     0.02339
  136          2     0.02251
  137          1     0.01629
  138          3     0.00994
  139          1     0.01081
  140          3     0.02329
  141          4     0.02291
  142          1     0.00602
  143          1     0.01055
  144          3     0.02039
  145          2     0.00619
  146          3     0.02387
  147          3     0.01291
  148          3     0.00931
  149          1     0.02126
  150          1     0.00573
  151          2     0.00909
  152          1     0.01152
  153          1     0.00592
  154          4     0.01377
  155          1     0.00546
  156          6     0.01217
  157          5     0.01237
  158          3     0.01108
  159          3     0.02518
  160          8     0.02867
  161          2     0.00625
  162          2     0.01374
  163          1     0.00567
  164          2     0.00587
  165          4     0.01973
  166          4     0.01759
  167          3     0.01408
  168          3     0.02408
  169          3     0.02269
  170          3     0.00624
  171          1     0.00599
  172          1     0.00922
  173          5     0.01144
  174          3     0.01865
  175          3     0.01121
  176          5     0.01192
  177          4     0.01903
  178          2     0.00656
  179          5     0.01635
  180          5     0.00647
  181          3     0.01355
  182          3     0.01122
  184          5     0.02800
  185          4     0.01992
  186          6     0.01443
  187          4     0.01561
  188          5     0.01543
  189          4     0.01287
  190          4     0.05017
  191          1     0.00973
  193          6     0.01970
  194          3     0.00669
  195          2     0.00832
  196          4     0.00630
  197          2     0.00908
  198          1     0.01097
  199          2     0.00912
  200          8     0.01974
  201          2     0.01327
  202          2     0.01091
  203          7     0.02484
  204          7     0.01635
  205          3     0.00745
  206          4     0.00860
  207          3     0.01444
  208          4     0.01278
  209          5     0.02316
  210          8     0.01978
  211          6     0.02406
  212          4     0.01306
  213          4     0.01659
  214          5     0.01079
  215          9     0.03559
  216          6     0.01027
  217          5     0.01064
  218          5     0.01831
  219          6     0.01795
  220          7     0.02026
  221          6     0.02096
  222          3     0.00776
  223          6     0.02124
  224          2     0.01417
  225          3     0.01850
  226          5     0.00824
  227          3     0.02289
  228          4     0.01320
  229          7     0.01866
  230         13     0.02747
  231          7     0.01742
  232          4     0.00679
  233          5     0.01718
  234          7     0.01833
  235          3     0.00913
  236          6     0.01213
  237          3     0.01218
  238          6     0.01199
  239          6     0.01122
  240          3     0.01050
  241          6     0.01685
  242          8     0.02121
  243          8     0.03888
  244          9     0.01233
  245          9     0.02688
  246          6     0.00708
  247         13     0.04278
  248          3     0.01981
  249          8     0.01764
  250          5     0.01330
  251          8     0.00733
  252          8     0.01439
  253         10     0.01865
  254          4     0.01143
  255          5     0.01306
  256          6     0.01889
  257          8     0.02277
  258          9     0.04466
  259          9     0.02115
  260         12     0.03326
  261          8     0.01187
  262          3     0.00630
  263          6     0.02200
  264          2     0.00629
  265         11     0.02056
  266          7     0.02002
  267         11     0.01135
  268          9     0.02564
  269          7     0.01010
  270          8     0.00692
  271          6     0.01743
  272          8     0.04416
  273         11     0.01956
  274          8     0.02820
  275          5     0.01559
  276          7     0.04360
  277          6     0.01427
  278         10     0.03658
  279          4     0.01307
  280         10     0.03155
  281         12     0.02535
  282          5     0.00701
  283         12     0.01226
  284          8     0.00656
  285          6     0.01745
  286          5     0.00701
  287          8     0.02532
  288          4     0.02174
  289          8     0.01770
  290         12     0.06059
  291          8     0.02908
  292         15     0.02092
  293          8     0.00773
  294          9     0.03715
  295          7     0.00730
  296          8     0.02277
  297         10     0.01968
  298          8     0.02480
  299         10     0.04666
  300          8     0.01676
  301          6     0.01762
  302          5     0.01048
  303         14     0.04571
  304          7     0.01277
  305          7     0.01271
  306          8     0.01784
  307          8     0.01557
  308         12     0.02905
  309         13     0.02967
  310          7     0.02967
  311         15     0.02005
  312          6     0.01407
  313         12     0.02113
  314         11     0.02723
  315          8     0.02501
  316          9     0.02123
  317          6     0.00732
  318          7     0.01529
  319         10     0.01868
  320         11     0.01823
  321          9     0.01881
  322         13     0.02568
  323         10     0.01750
  324          8     0.02295
  325         11     0.01654
  326         16     0.06410
  327         18     0.01846
  328         12     0.03781
  329          7     0.01773
  330         12     0.01667
  331          7     0.02057
  332         13     0.03106
  333         10     0.03572
  334          9     0.01554
  335         12     0.01387
  336         12     0.01738
  337         11     0.00909
  338          9     0.01663
  339         11     0.02498
  340          9     0.02489
  341         12     0.02166
  342          8     0.02125
  343         12     0.02225
  344         17     0.01226
  345         17     0.02739
  346          7     0.01158
  347         13     0.02053
  348         12     0.02193
  349         17     0.02423
  350          9     0.02076
  351         12     0.01105
  352         15     0.02286
  353         12     0.00963
  354         15     0.03457
  355         18     0.03234
  356         16     0.01350
  357         15     0.03659
  358         10     0.02016
  359          8     0.01577
  360         19     0.02496
  361         15     0.02166
  362         18     0.01807
  363         12     0.01509
  364         15     0.02885
  365         13     0.02178
  366         26     0.02703
  367         22     0.01852
  368         16     0.02933
  369         12     0.05151
  370         19     0.02936
  371         19     0.03249
  372         21     0.02262
  373         16     0.02979
  374         14     0.02780
  375         20     0.03981
  376         14     0.02201
  377         17     0.02367
  378          7     0.01303
  379         13     0.03664
  380         20     0.02170
  381         11     0.01607
  382         11     0.01521
  383         14     0.02804
  384         15     0.01090
  385         16     0.02806
  386         19     0.03584
  387         23     0.04865
  388         26     0.02796
  389         18     0.05598
  390         18     0.02096
  391         13     0.01484
  392         19     0.02895
  393         18     0.02023
  394         16     0.01644
  395         13     0.02563
  396         19     0.01746
  397         26     0.02456
  398         11     0.02526
  399         13     0.02495
  400         20     0.01931
  401         17     0.03534
  402         17     0.02272
  403         24     0.03280
  404         20     0.01708
  405         23     0.01991
  406         20     0.03168
  407         20     0.05339
  408         16     0.02893
  409         16     0.04498
  410         22     0.03859
  411         17     0.01982
  412         18     0.03870
  413         17     0.03449
  414         26     0.01980
  415         20     0.03010
  416         30     0.03531
  417         24     0.05884
  418         23     0.02662
  419         22     0.01856
  420         31     0.02908
  421         18     0.01846
  422         25     0.05716
  423         23     0.01942
  424         23     0.03941
  425         25     0.03281
  426         22     0.04794
  427         16     0.02965
  428         24     0.03072
  429         18     0.02512
  430         24     0.03436
  431         21     0.03475
  432         20     0.03903
  433         18     0.01759
  434         34     0.04717
  435         28     0.02678
  436         20     0.03009
  437         22     0.02469
  438         24     0.01773
  439         29     0.05148
  440         21     0.02898
  441         27     0.02056
  442         25     0.03698
  443         25     0.01962
  444         19     0.04145
  445         34     0.03970
  446         22     0.03493
  447         21     0.03879
  448         21     0.07081
  449         27     0.03239
  450         29     0.02907
  451         28     0.03465
  452         18     0.02443
  453         25     0.02280
  454         29     0.04280
  455         31     0.02577
  456         24     0.03394
  457         41     0.05701
  458         30     0.03686
  459         28     0.03121
  460         26     0.02320
  461         25     0.02118
  462         30     0.04908
  463         26     0.02455
  464         21     0.02391
  465         35     0.02367
  466         31     0.02403
  467         27     0.02146
  468         31     0.04579
  469         32     0.05902
  470         30     0.02288
  471         26     0.04361
  472         25     0.07321
  473         25     0.02674
  474         26     0.02080
  475         18     0.01590
  476         35     0.05024
  477         41     0.04669
  478         25     0.03572
  479         20     0.03288
  480         32     0.03146
  481         20     0.02978
  482         30     0.03629
  483         35     0.03649
  484         24     0.01535
  485         29     0.02645
  486         29     0.03360
  487         38     0.02487
  488         29     0.03845
  489         24     0.03527
  490         29     0.02492
  491         36     0.03134
  492         16     0.01380
  493         19     0.01913
  494         27     0.03433
  495         32     0.02056
  496         21     0.01351
  497         23     0.05440
  498         28     0.02605
  499         31     0.02620
  500         27     0.02417
  501         33     0.03404
  502         39     0.06982
  503         33     0.03363
  504         34     0.03579
  505         36     0.03326
  506         31     0.04738
  507         26     0.11417
  508         32     0.03119
  509         34     0.02184
  510         33     0.03872
  511         34     0.02871
  512         34     0.03034
  513         33     0.04051
  514         34     0.02310
  515         31     0.06566
  516         33     0.03322
  517         36     0.03568
  518         32     0.03795
  519         41     0.05563
  520         27     0.02477
  521         37     0.03272
  522         43     0.03308
  523         31     0.02986
  524         39     0.03474
  525         29     0.03384
  526         27     0.03931
  527         33     0.04326
  528         33     0.02449
  529         56     0.05037
  530         31     0.03504
  531         33     0.02644
  532         34     0.03547
  533         39     0.05604
  534         36     0.02894
  535         33     0.02453
  536         26     0.01803
  537         44     0.06389
  538         30     0.03678
  539         35     0.05792
  540         46     0.06785
  541         33     0.06853
  542         31     0.03117
  543         34     0.07139
  544         38     0.07185
  545         29     0.04883
  546         38     0.03579
  547         35     0.07465
  548         42     0.02897
  549         33     0.02236
  550         38     0.05674
  551         36     0.04542
  552         31     0.02614
  553         38     0.10394
  554         42     0.06049
  555         37     0.04479
  556         38     0.08092
  557         46     0.08871
  558         45     0.05330
  559         35     0.03996
  560         42     0.05054
  561         42     0.05947
  562         34     0.03027
  563         38     0.03754
  564         28     0.04033
  565         35     0.03413
  566         43     0.03502
  567         45     0.04687
  568         42     0.05611
  569         33     0.03555
  570         41     0.02663
  571         55     0.04905
  572         44     0.03826
  573         38     0.04867
  574         48     0.05389
  575         40     0.04107
  576         54     0.03595
  577         45     0.03050
  578         54     0.04931
  579         44     0.04675
  580         53     0.04003
  581         40     0.03997
  582         54     0.04341
  583         47     0.07355
  584         41     0.03320
  585         38     0.03998
  586         35     0.05579
  587         44     0.04820
  588         51     0.07297
  589         39     0.04445
  590         44     0.03683
  591         44     0.06299
  592         46     0.03145
  593         38     0.04005
  594         48     0.02833
  595         45     0.04227
  596         42     0.03228
  597         45     0.03692
  598         45     0.04535
  599         44     0.03514
  600         39     0.03559
  601         46     0.03326
  602         45     0.03707
  603         46     0.04801
  604         47     0.03117
  605         58     0.02562
  606         37     0.03242
  607         50     0.05192
  608         46     0.04957
  609         51     0.03479
  610         40     0.02618
  611         39     0.03928
  612         47     0.04858
  613         50     0.05189
  614         55     0.04435
  615         46     0.03696
  616         49     0.06936
  617         53     0.05603
  618         53     0.03099
  619         32     0.04127
  620         54     0.06304
  621         46     0.04109
  622         46     0.05627
  623         40     0.02796
  624         48     0.04187
  625         58     0.03787
  626         56     0.04301
  627         59     0.02811
  628         60     0.02977
  629         42     0.02961
  630         45     0.03073
  631         42     0.03076
  632         52     0.05901
  633         52     0.04866
  634         41     0.04503
  635         52     0.05508
  636         60     0.03875
  637         49     0.02728
  638         43     0.02075
  639         46     0.02548
  640         48     0.02510
  641         50     0.03237
  642         47     0.07689
  643         54     0.05024
  644         50     0.05702
  645         46     0.05611
  646         47     0.03940
  647         44     0.02466
  648         58     0.02870
  649         40     0.02538
  650         51     0.03704
  651         55     0.04262
  652         61     0.03658
  653         49     0.05515
  654         54     0.04267
  655         61     0.06941
  656         58     0.04641
  657         52     0.04518
  658         44     0.03127
  659         46     0.04422
  660         53     0.04203
  661         42     0.03309
  662         46     0.03730
  663         62     0.03905
  664         47     0.03752
  665         46     0.03975
  666         55     0.05761
  667         60     0.03440
  668         60     0.05480
  669         47     0.02762
  670         53     0.03865
  671         52     0.03429
  672         55     0.03260
  673         62     0.05617
  674         69     0.02748
  675         43     0.04117
  676         52     0.04467
  677         48     0.03481
  678         60     0.04363
  679         50     0.04447
  680         59     0.02905
  681         51     0.02563
  682         53     0.03306
  683         49     0.02183
  684         65     0.04118
  685         56     0.05328
  686         57     0.03657
  687         37     0.03584
  688         55     0.04807
  689         65     0.04442
  690         61     0.02431
  691         58     0.02813
  692         45     0.02235
  693         55     0.03847
  694         65     0.02324
  695         67     0.03876
  696         46     0.03437
  697         47     0.05017
  698         51     0.04028
  699         48     0.03456
  700         53     0.05920
  701         56     0.03465
  702         50     0.03882
  703         67     0.05410
  704         53     0.04634
  705         62     0.06618
  706         63     0.06167
  707         57     0.03338
  708         47     0.04465
  709         54     0.04116
  710         49     0.02583
  711         51     0.05697
  712         58     0.03301
  713         54     0.04218
  714         58     0.03464
  715         56     0.03718
  716         50     0.02549
  717         47     0.06138
  718         55     0.04335
  719         68     0.03905
  720         41     0.03056
  721         56     0.02762
  722         51     0.02631
  723         45     0.03334
  724         63     0.05346
  725         52     0.04602
  726         48     0.03489
  727         58     0.02437
  728         52     0.03484
  729         50     0.04971
  730         54     0.03496
  731         53     0.04699
  732         50     0.05316
  733         62     0.03386
  734         63     0.04229
  735         66     0.03662
  736         58     0.05171
  737         55     0.02857
  738         71     0.04795
  739         60     0.02663
  740         45     0.01947
  741         60     0.03781
  742         54     0.02829
  743         51     0.03805
  744         58     0.05500
  745         62     0.05164
  746         48     0.03711
  747         55     0.02629
  748         57     0.02976
  749         54     0.03766
  750         64     0.03359
  751         53     0.02723
  752         48     0.02921
  753         56     0.04138
  754         57     0.03697
  755         57     0.03296
  756         57     0.04302
  757         51     0.03356
  758         51     0.02901
  759         51     0.04457
  760         51     0.02494
  761         47     0.03174
  762         60     0.05554
  763         56     0.03841
  764         56     0.04314
  765         54     0.04190
  766         50     0.03447
  767         63     0.02790
  768         51     0.04855
  769         63     0.03905
  770         59     0.05003
  771         58     0.03626
  772         45     0.02916
  773         56     0.06842
  774         65     0.05127
  775         52     0.02410
  776         44     0.02304
  777         57     0.05655
  778         61     0.02745
  779         67     0.03257
  780         72     0.03726
  781         59     0.03329
  782         62     0.05973
  783         34     0.03231
  784         56     0.02651
  785         51     0.03141
  786         58     0.02764
  787         51     0.03543
  788         67     0.03491
  789         45     0.02728
  790         55     0.03082
  791         38     0.02177
  792         61     0.03543
  793         43     0.03091
  794         39     0.01306
  795         52     0.02921
  796         64     0.04844
  797         49     0.03462
  798         44     0.03459
  799         37     0.03048
  800         58     0.04303
  801         50     0.03252
  802         33     0.02634
  803         52     0.04568
  804         71     0.03217
  805         47     0.04408
  806         51     0.03082
  807         59     0.03980
  808         54     0.02892
  809         55     0.02901
  810         49     0.03523
  811         49     0.02472
  812         43     0.02212
  813         55     0.04832
  814         52     0.03678
  815         50     0.03063
  816         59     0.04519
  817         46     0.02637
  818         54     0.04647
  819         57     0.02961
  820         53     0.04720
  821         66     0.04901
  822         47     0.02864
  823         57     0.02935
  824         54     0.04788
  825         43     0.02808
  826         54     0.03328
  827         64     0.05396
  828         53     0.03546
  829         77     0.04359
  830         49     0.02136
  831         56     0.03149
  832         39     0.03227
  833         58     0.05901
  834         50     0.03723
  835         46     0.03186
  836         57     0.03976
  837         58     0.04988
  838         56     0.02988
  839         55     0.02538
  840         59     0.03809
  841         70     0.03176
  842         58     0.04555
  843         52     0.02735
  844         50     0.03995
  845         54     0.02925
  846         52     0.03939
  847         49     0.02190
  848         52     0.03134
  849         43     0.02472
  850         55     0.03979
  851         49     0.03545
  852         66     0.03924
  853         44     0.02961
  854         70     0.04771
  855         55     0.02509
  856         52     0.03058
  857         43     0.04520
  858         51     0.04523
  859         60     0.03740
  860         53     0.03084
  861         55     0.04213
  862         51     0.02498
  863         51     0.03054
  864         45     0.02297
  865         49     0.03552
  866         42     0.03112
  867         54     0.02597
  868         39     0.01861
  869         50     0.02364
  870         55     0.03521
  871         51     0.04733
  872         44     0.03889
  873         43     0.03225
  874         46     0.03468
  875         48     0.02819
  876         53     0.03836
  877         47     0.03150
  878         37     0.01978
  879         52     0.03188
  880         48     0.03552
  881         53     0.03841
  882         46     0.02319
  883         47     0.03579
  884         54     0.03570
  885         59     0.03365
  886         51     0.03278
  887         40     0.02379
  888         54     0.02600
  889         54     0.06104
  890         49     0.02855
  891         47     0.03209
  892         53     0.02751
  893         68     0.05922
  894         52     0.02830
  895         63     0.02522
  896         51     0.03834
  897         57     0.04649
  898         53     0.04190
  899         57     0.02698
  900         66     0.02989
  901         50     0.02479
  902         50     0.01859
  903         41     0.02182
  904         58     0.03869
  905         42     0.01506
  906         47     0.03889
  907         66     0.03007
  908         50     0.03566
  909         47     0.02558
  910         54     0.04227
  911         57     0.02715
  912         49     0.06799
  913         53     0.03177
  914         53     0.03717
  915         38     0.03134
  916         41     0.03089
  917         35     0.02333
  918         41     0.01864
  919         47     0.02985
  920         44     0.03539
  921         45     0.02874
  922         43     0.02384
  923         49     0.01930
  924         46     0.03431
  925         43     0.02028
  926         39     0.01873
  927         48     0.02236
  928         56     0.05414
  929         42     0.02709
  930         62     0.02701
  931         35     0.02041
  932         45     0.02283
  933         60     0.02690
  934         41     0.02804
  935         48     0.04278
  936         49     0.06091
  937         47     0.03059
  938         40     0.02064
  939         62     0.03331
  940         42     0.02585
  941         51     0.03085
  942         53     0.03151
  943         52     0.03086
  944         46     0.04406
  945         49     0.03568
  946         56     0.01996
  947         48     0.03289
  948         52     0.04116
  949         52     0.03536
  950         54     0.03479
  951         53     0.02495
  952         63     0.02885
  953         35     0.02184
  954         57     0.03553
  955         54     0.02543
  956         47     0.02843
  957         42     0.02996
  958         45     0.04009
  959         51     0.02757
  960         43     0.01905
  961         42     0.04070
  962         49     0.02702
  963         45     0.02757
  964         52     0.02689
  965         30     0.01744
  966         43     0.03848
  967         49     0.02226
  968         52     0.03332
  969         53     0.05220
  970         47     0.02586
  971         53     0.02801
  972         49     0.02814
  973         51     0.04734
  974         45     0.03286
  975         43     0.01949
  976         47     0.02441
  977         40     0.02494
  978         38     0.04101
  979         52     0.02024
  980         43     0.02899
  981         51     0.03352
  982         37     0.02185
  983         39     0.02183
  984         42     0.03010
  985         43     0.02992
  986         37     0.01401
  987         32     0.01938
  988         36     0.01475
  989         41     0.02415
  990         50     0.02651
  991         36     0.01639
  992         29     0.02603
  993         50     0.01938
  994         41     0.01860
  995         51     0.01871
  996         40     0.04015
  997         34     0.01592
  998         44     0.01962
  999         59     0.02143
 1000         48     0.03762
 1001         39     0.01835
 1002         42     0.02707
 1003         38     0.01770
 1004         32     0.02490
 1005         31     0.02081
 1006         44     0.01942
 1007         33     0.01711
 1008         38     0.01916
 1009         40     0.03361
 1010         37     0.01769
 1011         42     0.01749
 1012         31     0.01938
 1013         44     0.02991
 1014         41     0.02230
 1015         30     0.03233
 1016         37     0.02351
 1017         42     0.03016
 1018         40     0.02768
 1019         47     0.02196
 1020         30     0.02575
 1021         38     0.02663
 1022         29     0.01576
 1023         41     0.01982
 1024         26     0.02473
 1025         29     0.01339
 1026         31     0.02685
 1027         50     0.01963
 1028         49     0.02410
 1029         43     0.02359
 1030         44     0.02637
 1031         43     0.02463
 1032         41     0.02382
 1033         40     0.02554
 1034         32     0.02007
 1035         34     0.01929
 1036         30     0.01741
 1037         42     0.03854
 1038         29     0.01829
 1039         30     0.01625
 1040         32     0.02604
 1041         36     0.02554
 1042         38     0.02483
 1043         33     0.03011
 1044         38     0.01936
 1045         21     0.02285
 1046         38     0.02667
 1047         37     0.02177
 1048         36     0.02941
 1049         25     0.02868
 1050         34     0.02824
 1051         33     0.03925
 1052         30     0.02101
 1053         32     0.02106
 1054         44     0.01672
 1055         31     0.01929
 1056         38     0.01841
 1057         36     0.03910
 1058         31     0.02904
 1059         44     0.02590
 1060         35     0.02100
 1061         36     0.02660
 1062         43     0.01812
 1063         34     0.01864
 1064         24     0.01876
 1065         24     0.02199
 1066         26     0.01198
 1067         32     0.01892
 1068         27     0.02230
 1069         29     0.02426
 1070         38     0.02892
 1071         43     0.03882
 1072         34     0.02789
 1073         25     0.02872
 1074         31     0.01190
 1075         34     0.02248
 1076         33     0.02767
 1077         48     0.03148
 1078         40     0.02083
 1079         39     0.02417
 1080         34     0.02643
 1081         32     0.02724
 1082         33     0.02076
 1083         28     0.03089
 1084         40     0.01217
 1085         30     0.02099
 1086         37     0.03056
 1087         32     0.01975
 1088         35     0.01803
 1089         35     0.01812
 1090         30     0.01787
 1091         35     0.02314
 1092         20     0.01883
 1093         33     0.01695
 1094         28     0.01662
 1095         36     0.02172
 1096         44     0.03318
 1097         47     0.01804
 1098         32     0.03135
 1099         28     0.02067
 1100         37     0.01711
 1101         25     0.02151
 1102         35     0.01653
 1103         29     0.02457
 1104         27     0.02061
 1105         28     0.01644
 1106         29     0.02012
 1107         35     0.01301
 1108         27     0.03151
 1109         24     0.03734
 1110         38     0.03031
 1111         28     0.01737
 1112         27     0.01597
 1113         42     0.01464
 1114         24     0.01028
 1115         34     0.02130
 1116         32     0.01787
 1117         30     0.02161
 1118         37     0.03625
 1119         27     0.02211
 1120         24     0.01788
 1121         18     0.01298
 1122         26     0.02310
 1123         26     0.02051
 1124         24     0.01940
 1125         30     0.02433
 1126         35     0.03008
 1127         37     0.03775
 1128         27     0.02329
 1129         26     0.01656
 1130         31     0.01996
 1131         21     0.01745
 1132         27     0.01872
 1133         29     0.01243
 1134         32     0.02550
 1135         34     0.02001
 1136         32     0.02738
 1137         25     0.01916
 1138         28     0.02583
 1139         24     0.01310
 1140         33     0.02858
 1141         27     0.01522
 1142         25     0.04034
 1143         24     0.01742
 1144         21     0.01232
 1145         27     0.03199
 1146         27     0.01486
 1147         39     0.07249
 1148         25     0.03709
 1149         17     0.01843
 1150         24     0.01961
 1151         32     0.02243
 1152         24     0.01631
 1153         24     0.01912
 1154         29     0.01449
 1155         26     0.03081
 1156         16     0.01097
 1157         31     0.01926
 1158         29     0.01775
 1159         26     0.01896
 1160         29     0.02846
 1161         23     0.01614
 1162         23     0.01322
 1163         29     0.01653
 1164         33     0.02243
 1165         27     0.02491
 1166         17     0.01637
 1167         38     0.01953
 1168         31     0.02706
 1169         24     0.02117
 1170         29     0.01651
 1171         23     0.01293
 1172         26     0.02302
 1173         18     0.00898
 1174         25     0.02666
 1175         30     0.01653
 1176         20     0.01827
 1177         30     0.01526
 1178         20     0.01711
 1179         26     0.01056
 1180         23     0.02059
 1181         20     0.00997
 1182         30     0.01005
 1183         20     0.02010
 1184         27     0.02538
 1185         21     0.02069
 1186         16     0.00969
 1187         24     0.01657
 1188         21     0.01544
 1189         25     0.01480
 1190         30     0.01603
 1191         27     0.02214
 1192         21     0.00909
 1193         22     0.01742
 1194         20     0.01849
 1195         17     0.03423
 1196         24     0.02204
 1197         23     0.01814
 1198         20     0.01461
 1199         24     0.01593
 1200         18     0.01881
 1201         22     0.02388
 1202         18     0.01894
 1203         22     0.01377
 1204         25     0.01857
 1205         25     0.02793
 1206         24     0.02413
 1207         20     0.01070
 1208         24     0.01932
 1209         26     0.02232
 1210         26     0.02349
 1211         22     0.03526
 1212         20     0.01791
 1213         25     0.02223
 1214         25     0.03614
 1215         21     0.01731
 1216         23     0.01641
 1217         25     0.01563
 1218         16     0.01601
 1219         16     0.01243
 1220         26     0.01675
 1221         20     0.01652
 1222         27     0.02110
 1223         25     0.01578
 1224         31     0.02102
 1225         10     0.01330
 1226         21     0.01848
 1227         24     0.01466
 1228         21     0.02264
 1229         23     0.01849
 1230         22     0.01277
 1231         19     0.01437
 1232         21     0.02104
 1233         18     0.00903
 1234         21     0.02947
 1235         21     0.01592
 1236         23     0.03497
 1237         26     0.01196
 1238         24     0.01575
 1239         12     0.03340
 1240         26     0.01615
 1241         18     0.01670
 1242         25     0.01737
 1243         16     0.01191
 1244         21     0.03219
 1245         23     0.01144
 1246         13     0.00948
 1247         23     0.02831
 1248         12     0.01350
 1249         22     0.01741
 1250         18     0.01901
 1251         24     0.01383
 1252         18     0.02194
 1253         34     0.02775
 1254         25     0.01419
 1255         25     0.01546
 1256         10     0.01500
 1257         15     0.00921
 1258         27     0.01912
 1259         23     0.02560
 1260         16     0.01016
 1261         16     0.01412
 1262         16     0.01516
 1263         12     0.02015
 1264         22     0.01971
 1265         16     0.01701
 1266         19     0.02762
 1267         21     0.01601
 1268         28     0.02076
 1269         13     0.01281
 1270         18     0.02320
 1271         19     0.01327
 1272         24     0.02010
 1273         18     0.00872
 1274         12     0.01888
 1275         17     0.01580
 1276         17     0.01331
 1277         21     0.03046
 1278         12     0.02283
 1279         14     0.00778
 1280         19     0.01417
 1281         17     0.02307
 1282         15     0.01769
 1283         24     0.02989
 1284         18     0.02014
 1285         22     0.01315
 1286         14     0.00957
 1287         20     0.02189
 1288         22     0.01355
 1289         19     0.01094
 1290         23     0.02578
 1291         18     0.01246
 1292         22     0.01378
 1293         22     0.01978
 1294         13     0.00918
 1295         22     0.01242
 1296         27     0.02286
 1297         10     0.01367
 1298         20     0.02002
 1299         11     0.00772
 1300         18     0.00948
 1301         23     0.02072
 1302         22     0.01925
 1303         18     0.01092
 1304         15     0.01008
 1305          8     0.01201
 1306         16     0.01381
 1307         16     0.02090
 1308         16     0.01267
 1309         17     0.01497
 1310         22     0.01836
 1311         19     0.01608
 1312         14     0.01706
 1313         24     0.01636
 1314         22     0.02524
 1315         14     0.01288
 1316         19     0.01425
 1317         21     0.01041
 1318         21     0.02583
 1319         13     0.01516
 1320         23     0.02032
 1321         26     0.01530
 1322         17     0.01433
 1323         15     0.01462
 1324         11     0.01080
 1325         18     0.01191
 1326         20     0.01777
 1327         11     0.00848
 1328         24     0.01007
 1329          7     0.00689
 1330          6     0.00883
 1331         12     0.00779
 1332         20     0.02529
 1333         14     0.01121
 1334         13     0.01334
 1335         15     0.01406
 1336         12     0.00953
 1337         16     0.02189
 1338         18     0.01692
 1339         13     0.02229
 1340         10     0.01325
 1341         14     0.01038
 1342         15     0.01062
 1343         15     0.01351
 1344         14     0.01161
 1345         17     0.01388
 1346         14     0.01683
 1347         14     0.00808
 1348         21     0.01317
 1349         15     0.01195
 1350         20     0.01060
 1351         14     0.01113
 1352          9     0.01102
 1353         15     0.01561
 1354          8     0.01670
 1355         12     0.01184
 1356          8     0.00687
 1357         13     0.00796
 1358         10     0.01349
 1359         17     0.02312
 1360          9     0.01583
 1361         10     0.00843
 1362         12     0.01086
 1363         13     0.01214
 1364         13     0.00780
 1365         12     0.01415
 1366         16     0.01303
 1367         17     0.02058
 1368          1     0.00571
[...]
 2332          1     0.00602
 2336          1     0.00890
 2337          1     0.01320
 2338          3     0.00605
 2339          1     0.00571
 2340          2     0.00594
 2341          1     0.00568
 2342          1     0.00569
 2343          1     0.00550
 2344          2     0.00898
 2347          1     0.00583
 2348          1     0.00547
 2349          3     0.00583
 2350          2     0.00595
 2351          1     0.00618
 2352          2     0.01791
 2354          2     0.00648
 2360          1     0.00604
 2361          2     0.00910
 2362          2     0.00584
 2364          1     0.00600
 2367          2     0.00602
 2369          1     0.00541
 2370          2     0.00547
 2373          1     0.01117
 2375          2     0.00607
 2377          1     0.01423
 2379          2     0.00601
 2381          1     0.00555
 2383          1     0.00557
 2386          2     0.01511
 2387          2     0.00923
 2388          2     0.00615
 2389          3     0.01044
 2392          1     0.00583
 2394          1     0.00581
 2396          1     0.00532
 2398          2     0.00643
 2399          1     0.00561
 2400          3     0.01595
 2401          1     0.00577
 2402          1     0.01363
 2404          2     0.00579
 2405          2     0.00602
 2406          3     0.00599
 2408          2     0.01143
 2410          1     0.01266
 2411          2     0.01342
 2412          3     0.00664
 2415          2     0.00651
 2417          1     0.00547
 2418          1     0.00544
 2421          2     0.00907
 2422          1     0.01093
 2423          1     0.00936
 2424          2     0.01004
 2426          1     0.00585
 2427          1     0.00569
 2429          1     0.01086
 2430          3     0.00992
 2431          1     0.00606
 2434          1     0.00902
 2435          1     0.00656
 2437          2     0.00603
 2440          1     0.00618
 2441          1     0.00568
 2442          2     0.00638
 2447          2     0.00581
 2449          1     0.01239
 2450          1     0.00567
 2451          1     0.01478
 2452          2     0.01082
 2453          1     0.00577
 2454          4     0.00619
 2457          1     0.00569
 2458          2     0.00952
 2460          2     0.00601
 2462          2     0.00631
 2463          1     0.00589
 2464          2     0.00585
 2466          1     0.00546
 2467          3     0.00685
 2469          1     0.00580
 2471          1     0.00599
 2474          1     0.00596
 2475          2     0.00939
 2477          1     0.00643
 2480          2     0.00601
 2481          1     0.00929
 2484          2     0.01413
 2485          1     0.00592
 2487          1     0.00614
 2488          1     0.01224
 2491          1     0.00597
 2493          1     0.00581
 2494          2     0.00598
 2495          3     0.00906
 2496          1     0.00556
 2498          1     0.00587
 2505          2     0.00648
 2514          1     0.00621
 2518          1     0.00572
 2530          4     0.00594
 2531          1     0.00577
 2533          1     0.01028
 2538          1     0.01001
 2540          1     0.00621
 2541          1     0.00595
 2546          1     0.00546
 2549          1     0.00585
 2552          2     0.00690
 2555          1     0.00632
 2559          1     0.00596
 2560          2     0.01079
 2561          2     0.00624
 2562          1     0.00698
 2571          1     0.00582
 2574          1     0.00608
 2589          1     0.00588
 2593          1     0.00568
 2600          1     0.00553
 2601          2     0.01038
 2603          1     0.00602
 2606          1     0.00915
 2607          1     0.00589
 2612          1     0.00929
 2615          1     0.00588
 2619          1     0.00560
 2623          1     0.00958
 2625          1     0.01208
 2626          1     0.00582
 2628          1     0.00572
 2634          1     0.00568
 2635          1     0.00577
 2638          1     0.00550
 2641          1     0.00560
 2642          1     0.00520
 2644          1     0.00712
 2645          1     0.00581
 2646          1     0.00552
 2648          1     0.00544
 2649          1     0.00990
 2651          1     0.00579
 2655          1     0.00564
 2657          1     0.00545
 2660          1     0.01179
 2663          1     0.00886
 2669          1     0.00603
 2671          1     0.00577
 2672          1     0.00586
 2680          1     0.01423
 2689          1     0.01074
 2692          1     0.00694
 2693          1     0.00623
 2702          1     0.00556
 2703          1     0.00605
 2713          1     0.00572
 2719          1     0.00914
 2721          1     0.00599
 2723          2     0.00602
 2731          1     0.00882
 2738          1     0.00616
 2741          1     0.00879
 2742          1     0.00598
 2745          1     0.00933
 2747          1     0.00657
 2762          1     0.00946
 2777          1     0.00599
 2778          1     0.00579
 2780          1     0.01110
 2781          1     0.00626
 2783          1     0.00608
 2786          1     0.01143
 2787          1     0.00654
 2797          1     0.00632
 2800          1     0.00602
 2802          1     0.00560
 2804          1     0.00585
 2808          2     0.00582
 2817          1     0.00619
 2834          1     0.00673
 2846          2     0.01322
 2851          1     0.00582
 2855          1     0.00632
 2867          2     0.01684
 2870          1     0.00584
 2893          1     0.00614
 2906          1     0.00569
 2908          2     0.00900
 2915          1     0.00581
 2917          1     0.00644
 2930          1     0.00928
 2943          1     0.00664
 2962          1     0.00631
 2975          1     0.00604
 2992          1     0.00576
 2993          1     0.00922
 2996          1     0.00597
 2997          1     0.00625
 3001          1     0.01406
 3036          1     0.00626
 3046          1     0.00568
 3050          1     0.00590
 3052          1     0.00579
 3059          2     0.01087
 3060          1     0.00613
 3064          1     0.00563
 3067          1     0.00525
 3068          1     0.00589
 3082          1     0.00935
 3115          1     0.00629
 3159          1     0.01031
 3162          1     0.00573
 3180          1     0.00526
 3181          1     0.01089
 3227          1     0.00596
 3245          1     0.00602
 3273          1     0.00596
 3295          1     0.00585
 3296          1     0.07513
 3307          1     0.00628
 3314          1     0.00500
 3315          1     0.00574
 3324          1     0.00640
 3351          1     0.00630
 3359          1     0.00607
 3373          1     0.07974
 3377          1     0.01071
 3382          2     0.01222
 3393          1     0.01499
 3405          2     0.00633
 3419          1     0.00676
 3425          1     0.00737
 3431          1     0.00591
 3439          1     0.00625
 3460          1     0.01263
 3466          1     0.00884
 3470          1     0.00687
 3475          1     0.00624
 3492          1     0.00656
 3515          1     0.00642
 3530          1     0.00582
 3546          1     0.00677
 3547          1     0.00683
 3549          1     0.00688
 3551          1     0.00686
 3568          1     0.00645
 3573          1     0.00611
 3583          1     0.00595
 3607          1     0.00650
 3608          1     0.00936
 3613          1     0.00590
 3630          1     0.00591
 3648          1     0.00535
 3656          1     0.00535
took 2405 iterations
Trial Time:          0.08375
    0          1     0.02106
  200          1     0.00609
  204          1     0.00562
  232          1     0.00547
took 4 iterations
Trial Time:          0.00057
    0          1     0.03050
   44          1     0.01488
   61          1     0.02391
   69          1     0.00949
   71          1     0.00652
  105          1     0.00734
  107          1     0.00570
  108          1     0.00597
  126          1     0.02838
  143          1     0.00922
  146          2     0.01374
  152          1     0.01193
  153          1     0.00579
  161          1     0.00591
  167          2     0.02392
  174          1     0.01765
  183          1     0.01107
  189          1     0.00968
  195          1     0.00561
  204          1     0.01575
  205          2     0.00628
  208          1     0.00600
  209          1     0.00521
  210          1     0.00588
  211          1     0.00566
  214          2     0.00684
  218          1     0.00573
  219          1     0.01418
  225          1     0.00611
  226          1     0.00883
  229          1     0.02692
  230          1     0.00581
  234          1     0.00593
  239          1     0.00571
  240          1     0.00562
  242          1     0.00624
  247          1     0.01542
  249          1     0.00605
  253          1     0.00583
  256          1     0.00929
  258          1     0.00574
  259          2     0.00569
  264          1     0.00590
  265          1     0.00627
  267          1     0.00594
  270          2     0.01489
  271          1     0.00673
  286          1     0.00579
  296          1     0.00587
  298          4     0.00950
  299          1     0.01756
  300          1     0.00967
  301          1     0.01210
  302          1     0.00622
  303          1     0.00613
  305          1     0.00678
  306          1     0.01641
  310          1     0.00949
  313          1     0.01031
  314          1     0.01045
  315          2     0.01142
  316          1     0.01033
  317          1     0.00537
  318          1     0.00996
  319          1     0.00636
  320          2     0.01373
  323          2     0.00887
  326          1     0.00568
  327          1     0.00557
  328          1     0.00596
  329          1     0.00604
  330          1     0.00953
  332          2     0.01161
  333          1     0.00835
  338          1     0.00597
  341          2     0.01213
  342          2     0.00600
  348          3     0.00901
  352          1     0.00584
  353          1     0.00583
  354          1     0.00588
  356          1     0.00587
  358          1     0.01243
  362          3     0.01837
  364          1     0.00605
  365          1     0.00584
  366          1     0.00877
  368          2     0.01208
  369          1     0.00609
  371          1     0.00607
  373          1     0.02461
  377          2     0.00985
  378          3     0.00602
  381          1     0.01086
  382          1     0.00573
  384          1     0.00568
  385          1     0.00557
  386          2     0.00588
  388          2     0.00983
  390          2     0.00640
  391          2     0.01549
  394          1     0.00644
  395          1     0.00583
  398          1     0.00606
  399          1     0.00575
  400          1     0.00590
  403          1     0.00591
  408          1     0.00571
  409          1     0.00565
  410          2     0.00591
  415          1     0.00562
  417          1     0.00715
  418          2     0.00617
  422          2     0.01249
  423          1     0.00579
  426          2     0.01231
  428          1     0.03357
  429          3     0.00564
  431          1     0.00565
  436          3     0.00735
  439          1     0.00981
  440          1     0.00596
  441          1     0.00572
  442          1     0.00584
  445          1     0.00596
  446          3     0.00921
  448          1     0.01361
  449          2     0.01448
  451          1     0.00616
  452          2     0.00599
  453          3     0.01314
  455          2     0.01387
  459          1     0.01113
  461          1     0.00610
  462          1     0.00693
  464          1     0.00554
  467          1     0.01545
  468          2     0.00739
  470          1     0.00592
  471          1     0.00541
  473          1     0.00858
  474          1     0.00599
  477          2     0.00961
  479          2     0.01023
  482          5     0.01555
  484          1     0.00600
  485          2     0.00612
  486          3     0.01068
  487          1     0.00584
  488          1     0.00589
  489          1     0.00543
  491          2     0.00578
  492          1     0.00930
  494          1     0.01333
  496          1     0.00599
  497          1     0.00585
  500          1     0.00585
  502          2     0.00586
  503          1     0.00591
  504          1     0.00856
  509          1     0.00589
  511          1     0.00581
  513          2     0.00575
  515          1     0.00573
  517          2     0.01451
  519          2     0.01266
  520          3     0.01839
  521          2     0.00919
  522          2     0.01121
  523          1     0.00626
  527          1     0.00614
  529          1     0.00577
  530          1     0.00563
  531          1     0.00541
  532          2     0.01190
  533          1     0.00534
  534          1     0.00590
  535          2     0.00949
  536          1     0.00576
  538          1     0.00575
  543          1     0.00569
  545          1     0.00568
  546          3     0.01275
  548          1     0.00584
  551          2     0.02188
  552          3     0.00634
  553          1     0.00610
  555          1     0.01018
  556          2     0.01262
  557          1     0.00566
  558          2     0.00607
  562          1     0.00591
  565          1     0.00905
  566          1     0.00540
  568          1     0.01053
  569          1     0.00581
  573          1     0.01143
  574          1     0.00987
  575          4     0.01514
  576          1     0.00893
  578          1     0.00614
  580          3     0.01119
  581          1     0.01218
  582          2     0.00616
  583          1     0.00582
  585          1     0.00974
  586          1     0.01468
  587          1     0.00590
  588          2     0.00985
  590          2     0.00898
  591          1     0.00579
  593          1     0.00576
  594          1     0.01022
  596          1     0.00920
  597          1     0.00606
  601          1     0.00546
  602          3     0.00619
  603          1     0.00605
  604          1     0.00595
  605          1     0.00639
  606          1     0.00590
  607          2     0.00551
  611          4     0.01269
  612          3     0.01003
  613          2     0.00612
  614          1     0.00568
  616          1     0.00591
  618          1     0.00579
  623          1     0.00564
  624          1     0.01183
  626          1     0.00566
  628          1     0.00585
  630          1     0.00599
  632          1     0.00571
  633          1     0.00558
  639          3     0.00674
  643          3     0.00605
  644          1     0.00905
  645          2     0.00612
  647          1     0.00615
  648          1     0.00903
  649          2     0.01286
  651          2     0.00625
  653          2     0.01196
  654          1     0.00618
  658          2     0.01008
  659          1     0.00604
  663          1     0.00873
  664          1     0.00552
  665          1     0.03037
  666          2     0.00648
  667          1     0.00566
  669          2     0.01113
  670          1     0.00597
  671          1     0.00600
  672          1     0.00565
  673          4     0.00590
  674          1     0.01483
  676          1     0.00594
  678          1     0.00579
  680          2     0.00580
  682          2     0.00919
  686          1     0.00572
  687          1     0.00582
  689          1     0.01009
  692          3     0.00602
  693          1     0.00581
  694          1     0.00598
  700          1     0.00571
  701          1     0.00904
  702          1     0.01563
  703          1     0.00642
  704          1     0.00961
  706          2     0.00630
  707          1     0.00881
  709          1     0.00534
  711          3     0.00938
  715          2     0.00633
  716          2     0.00942
  717          1     0.00561
  720          1     0.00579
  721          1     0.00581
  722          1     0.00579
  723          1     0.00546
  726          1     0.00581
  727          1     0.00549
  728          2     0.00561
  729          1     0.00592
  730          2     0.00590
  731          2     0.00647
  732          2     0.00997
  733          2     0.00592
  734          1     0.00599
  735          2     0.01230
  736          1     0.00609
  739          2     0.00591
  741          1     0.00581
  746          1     0.00593
  747          1     0.00585
  749          2     0.00606
  750          1     0.00560
  751          1     0.00575
  753          1     0.00579
  754          1     0.00547
  756          1     0.00564
  762          1     0.00544
  763          1     0.01024
  764          1     0.00596
  765          1     0.00543
  766          1     0.00571
  767          1     0.00628
  769          1     0.00591
  770          1     0.00577
  772          1     0.00609
  775          2     0.00937
  777          1     0.00586
  778          1     0.00586
  781          1     0.00926
  783          1     0.00576
  787          2     0.01039
  788          1     0.00601
  789          1     0.00577
  792          1     0.01047
  793          1     0.00551
  794          1     0.00587
  799          1     0.00575
  804          1     0.00580
  807          1     0.00613
  809          1     0.00559
  814          1     0.00550
  815          1     0.00539
  818          1     0.00567
  819          1     0.00617
  824          1     0.00604
  828          1     0.00596
  835          1     0.00563
  836          1     0.01178
  842          1     0.01119
  844          1     0.00593
  849          1     0.00606
  850          1     0.00593
  855          1     0.00570
  866          1     0.00605
  867          1     0.01216
  872          1     0.00603
  877          1     0.01084
  878          1     0.00553
  880          1     0.00553
  881          2     0.00602
  891          1     0.00597
  895          1     0.01104
  896          1     0.00568
  897          1     0.00585
  904          1     0.00984
  907          1     0.00578
  911          1     0.00925
  917          1     0.00592
  922          1     0.01258
  925          1     0.00599
  927          2     0.00993
  943          1     0.00588
  950          1     0.00540
  951          1     0.01565
  968          1     0.01016
  972          1     0.00557
  974          1     0.00537
  975          1     0.01101
  976          1     0.00526
  978          2     0.00693
  982          1     0.00537
  985          1     0.00952
  988          2     0.00599
 1005          1     0.00583
 1012          1     0.00558
 1013          1     0.00530
 1015          1     0.00568
 1020          1     0.00565
 1023          1     0.00576
 1026          1     0.00519
 1033          1     0.00532
 1035          1     0.00533
 1039          1     0.00599
 1045          1     0.00590
 1046          1     0.00592
 1050          1     0.00574
 1057          1     0.00549
 1061          1     0.00526
 1069          2     0.00582
 1072          1     0.00875
 1076          1     0.03806
 1084          2     0.00610
 1094          1     0.00556
 1096          1     0.00552
 1107          1     0.00561
 1117          1     0.00527
 1124          1     0.00546
 1144          1     0.00526
 1146          1     0.00589
 1167          1     0.00581
 1193          1     0.00607
 1219          1     0.00626
 1274          1     0.00541
took 402 iterations
Trial Time:          0.01131
    0          1     0.02635
   71          1     0.00602
   93          1     0.00679
  174          1     0.00568
  192          1     0.00557
took 5 iterations
Trial Time:          0.00059
    0          1     0.01656
  136          1     0.00497
took 2 iterations
Trial Time:          0.00051
    0          1     0.01801
  134          1     0.00648
  226          1     0.00483
took 3 iterations
Trial Time:          0.00053
    0          1     0.01554
   64          1     0.00558
   66          1     0.00503
took 3 iterations
Trial Time:          0.00053
Average Time:        0.01401
Exiting @ tick 1717978336000 because exiting with last active thread context
