
---------- Begin Simulation Statistics ----------
final_tick                               1493409708000                       # Number of ticks from beginning of simulation (restored from checkpoints and never reset)
host_inst_rate                                  59848                       # Simulator instruction rate (inst/s)
host_mem_usage                                 702692                       # Number of bytes of host memory used
host_op_rate                                    60009                       # Simulator op (including micro ops) rate (op/s)
host_seconds                                 26169.36                       # Real time elapsed on the host
host_tick_rate                               57067103                       # Simulator tick rate (ticks/s)
sim_freq                                 1000000000000                       # Frequency of simulated ticks
sim_insts                                  1566185178                       # Number of instructions simulated
sim_ops                                    1570388961                       # Number of ops (including micro ops) simulated
sim_seconds                                  1.493410                       # Number of seconds simulated
sim_ticks                                1493409708000                       # Number of ticks simulated
system.cpu0.branchPred.BTBCorrect                   0                       # Number of correct BTB predictions (this stat may not work properly.
system.cpu0.branchPred.BTBHitPct            84.719554                       # BTB Hit Percentage
system.cpu0.branchPred.BTBHits              193382019                       # Number of BTB hits
system.cpu0.branchPred.BTBLookups           228261375                       # Number of BTB lookups
system.cpu0.branchPred.RASInCorrect                 0                       # Number of incorrect RAS predictions.
system.cpu0.branchPred.condIncorrect         14739563                       # Number of conditional branches incorrect
system.cpu0.branchPred.condPredicted        293497448                       # Number of conditional branches predicted
system.cpu0.branchPred.indirectHits          30589665                       # Number of indirect target hits.
system.cpu0.branchPred.indirectLookups       31156957                       # Number of indirect predictor lookups.
system.cpu0.branchPred.indirectMisses          567292                       # Number of indirect misses.
system.cpu0.branchPred.lookups              380878117                       # Number of BP lookups
system.cpu0.branchPred.usedRAS                      0                       # Number of times the RAS was used to get a target.
system.cpu0.branchPredindirectMispredicted      2276216                       # Number of mispredicted indirect branches.
system.cpu0.commit.amos                       2100296                       # Number of atomic instructions committed
system.cpu0.commit.branchMispredicts          9249568                       # The number of times a branch was mispredicted
system.cpu0.commit.branches                 343025690                       # Number of branches committed
system.cpu0.commit.bw_lim_events             46260545                       # number cycles where commit BW limit reached
system.cpu0.commit.commitNonSpecStalls        6309819                       # The number of times commit has been forced to stall to communicate backwards
system.cpu0.commit.commitSquashedInsts      170431903                       # The number of squashed insts skipped by commit
system.cpu0.commit.committedInsts          1408182828                       # Number of instructions committed
system.cpu0.commit.committedOps            1410286421                       # Number of ops (including micro ops) committed
system.cpu0.commit.committed_per_cycle::samples   2524640237                       # Number of insts commited each cycle
system.cpu0.commit.committed_per_cycle::mean     0.558609                       # Number of insts commited each cycle
system.cpu0.commit.committed_per_cycle::stdev     1.371044                       # Number of insts commited each cycle
system.cpu0.commit.committed_per_cycle::underflows            0      0.00%      0.00% # Number of insts commited each cycle
system.cpu0.commit.committed_per_cycle::0   1872094950     74.15%     74.15% # Number of insts commited each cycle
system.cpu0.commit.committed_per_cycle::1    382356643     15.14%     89.30% # Number of insts commited each cycle
system.cpu0.commit.committed_per_cycle::2     93174457      3.69%     92.99% # Number of insts commited each cycle
system.cpu0.commit.committed_per_cycle::3     80069639      3.17%     96.16% # Number of insts commited each cycle
system.cpu0.commit.committed_per_cycle::4     33490641      1.33%     97.49% # Number of insts commited each cycle
system.cpu0.commit.committed_per_cycle::5      9105906      0.36%     97.85% # Number of insts commited each cycle
system.cpu0.commit.committed_per_cycle::6      4816699      0.19%     98.04% # Number of insts commited each cycle
system.cpu0.commit.committed_per_cycle::7      3270757      0.13%     98.17% # Number of insts commited each cycle
system.cpu0.commit.committed_per_cycle::8     46260545      1.83%    100.00% # Number of insts commited each cycle
system.cpu0.commit.committed_per_cycle::overflows            0      0.00%    100.00% # Number of insts commited each cycle
system.cpu0.commit.committed_per_cycle::min_value            0                       # Number of insts commited each cycle
system.cpu0.commit.committed_per_cycle::max_value            8                       # Number of insts commited each cycle
system.cpu0.commit.committed_per_cycle::total   2524640237                       # Number of insts commited each cycle
system.cpu0.commit.fp_insts                        50                       # Number of committed floating point instructions.
system.cpu0.commit.function_calls            29098117                       # Number of function calls committed.
system.cpu0.commit.int_insts               1363644673                       # Number of committed integer instructions.
system.cpu0.commit.loads                    423705072                       # Number of loads committed
system.cpu0.commit.membars                    4203763                       # Number of memory barriers committed
system.cpu0.commit.op_class_0::No_OpClass      4203769      0.30%      0.30% # Class of committed instruction
system.cpu0.commit.op_class_0::IntAlu       798538014     56.62%     56.92% # Class of committed instruction
system.cpu0.commit.op_class_0::IntMult       12621993      0.89%     57.82% # Class of committed instruction
system.cpu0.commit.op_class_0::IntDiv         3672708      0.26%     58.08% # Class of committed instruction
system.cpu0.commit.op_class_0::FloatAdd             0      0.00%     58.08% # Class of committed instruction
system.cpu0.commit.op_class_0::FloatCmp             4      0.00%     58.08% # Class of committed instruction
system.cpu0.commit.op_class_0::FloatCvt            12      0.00%     58.08% # Class of committed instruction
system.cpu0.commit.op_class_0::FloatMult            0      0.00%     58.08% # Class of committed instruction
system.cpu0.commit.op_class_0::FloatMultAcc            0      0.00%     58.08% # Class of committed instruction
system.cpu0.commit.op_class_0::FloatDiv             2      0.00%     58.08% # Class of committed instruction
system.cpu0.commit.op_class_0::FloatMisc            4      0.00%     58.08% # Class of committed instruction
system.cpu0.commit.op_class_0::FloatSqrt            0      0.00%     58.08% # Class of committed instruction
system.cpu0.commit.op_class_0::SimdAdd              0      0.00%     58.08% # Class of committed instruction
system.cpu0.commit.op_class_0::SimdAddAcc            0      0.00%     58.08% # Class of committed instruction
system.cpu0.commit.op_class_0::SimdAlu              0      0.00%     58.08% # Class of committed instruction
system.cpu0.commit.op_class_0::SimdCmp              0      0.00%     58.08% # Class of committed instruction
system.cpu0.commit.op_class_0::SimdCvt              0      0.00%     58.08% # Class of committed instruction
system.cpu0.commit.op_class_0::SimdMisc             0      0.00%     58.08% # Class of committed instruction
system.cpu0.commit.op_class_0::SimdMult             0      0.00%     58.08% # Class of committed instruction
system.cpu0.commit.op_class_0::SimdMultAcc            0      0.00%     58.08% # Class of committed instruction
system.cpu0.commit.op_class_0::SimdShift            0      0.00%     58.08% # Class of committed instruction
system.cpu0.commit.op_class_0::SimdShiftAcc            0      0.00%     58.08% # Class of committed instruction
system.cpu0.commit.op_class_0::SimdDiv              0      0.00%     58.08% # Class of committed instruction
system.cpu0.commit.op_class_0::SimdSqrt             0      0.00%     58.08% # Class of committed instruction
system.cpu0.commit.op_class_0::SimdFloatAdd            0      0.00%     58.08% # Class of committed instruction
system.cpu0.commit.op_class_0::SimdFloatAlu            0      0.00%     58.08% # Class of committed instruction
system.cpu0.commit.op_class_0::SimdFloatCmp            0      0.00%     58.08% # Class of committed instruction
system.cpu0.commit.op_class_0::SimdFloatCvt            0      0.00%     58.08% # Class of committed instruction
system.cpu0.commit.op_class_0::SimdFloatDiv            0      0.00%     58.08% # Class of committed instruction
system.cpu0.commit.op_class_0::SimdFloatMisc            0      0.00%     58.08% # Class of committed instruction
system.cpu0.commit.op_class_0::SimdFloatMult            0      0.00%     58.08% # Class of committed instruction
system.cpu0.commit.op_class_0::SimdFloatMultAcc            0      0.00%     58.08% # Class of committed instruction
system.cpu0.commit.op_class_0::SimdFloatSqrt            0      0.00%     58.08% # Class of committed instruction
system.cpu0.commit.op_class_0::SimdReduceAdd            0      0.00%     58.08% # Class of committed instruction
system.cpu0.commit.op_class_0::SimdReduceAlu            0      0.00%     58.08% # Class of committed instruction
system.cpu0.commit.op_class_0::SimdReduceCmp            0      0.00%     58.08% # Class of committed instruction
system.cpu0.commit.op_class_0::SimdFloatReduceAdd            0      0.00%     58.08% # Class of committed instruction
system.cpu0.commit.op_class_0::SimdFloatReduceCmp            0      0.00%     58.08% # Class of committed instruction
system.cpu0.commit.op_class_0::SimdAes              0      0.00%     58.08% # Class of committed instruction
system.cpu0.commit.op_class_0::SimdAesMix            0      0.00%     58.08% # Class of committed instruction
system.cpu0.commit.op_class_0::SimdSha1Hash            0      0.00%     58.08% # Class of committed instruction
system.cpu0.commit.op_class_0::SimdSha1Hash2            0      0.00%     58.08% # Class of committed instruction
system.cpu0.commit.op_class_0::SimdSha256Hash            0      0.00%     58.08% # Class of committed instruction
system.cpu0.commit.op_class_0::SimdSha256Hash2            0      0.00%     58.08% # Class of committed instruction
system.cpu0.commit.op_class_0::SimdShaSigma2            0      0.00%     58.08% # Class of committed instruction
system.cpu0.commit.op_class_0::SimdShaSigma3            0      0.00%     58.08% # Class of committed instruction
system.cpu0.commit.op_class_0::SimdPredAlu            0      0.00%     58.08% # Class of committed instruction
system.cpu0.commit.op_class_0::MemRead      425805360     30.19%     88.27% # Class of committed instruction
system.cpu0.commit.op_class_0::MemWrite     165444527     11.73%    100.00% # Class of committed instruction
system.cpu0.commit.op_class_0::FloatMemRead            8      0.00%    100.00% # Class of committed instruction
system.cpu0.commit.op_class_0::FloatMemWrite           20      0.00%    100.00% # Class of committed instruction
system.cpu0.commit.op_class_0::IprAccess            0      0.00%    100.00% # Class of committed instruction
system.cpu0.commit.op_class_0::InstPrefetch            0      0.00%    100.00% # Class of committed instruction
system.cpu0.commit.op_class_0::total       1410286421                       # Class of committed instruction
system.cpu0.commit.refs                     591249915                       # Number of memory references committed
system.cpu0.commit.swp_count                        0                       # Number of s/w prefetches committed
system.cpu0.commit.vec_insts                        0                       # Number of committed Vector instructions.
system.cpu0.committedInsts                 1408182828                       # Number of Instructions Simulated
system.cpu0.committedOps                   1410286421                       # Number of Ops (including micro ops) Simulated
system.cpu0.cpi                              2.112419                       # CPI: Cycles Per Instruction
system.cpu0.cpi_total                        2.112419                       # CPI: Total CPI of All Threads
system.cpu0.decode.BlockedCycles            568437081                       # Number of cycles decode is blocked
system.cpu0.decode.BranchMispred              5501242                       # Number of times decode detected a branch misprediction
system.cpu0.decode.BranchResolved           189573840                       # Number of times decode resolved a branch
system.cpu0.decode.DecodedInsts            1601781931                       # Number of instructions handled by decode
system.cpu0.decode.IdleCycles               858067606                       # Number of cycles decode is idle
system.cpu0.decode.RunCycles               1106599194                       # Number of cycles decode is running
system.cpu0.decode.SquashCycles               9265468                       # Number of cycles decode is squashing
system.cpu0.decode.SquashedInsts             16473193                       # Number of squashed instructions handled by decode
system.cpu0.decode.UnblockCycles             10223379                       # Number of cycles decode is unblocking
system.cpu0.dtb.accesses                            0                       # DTB accesses
system.cpu0.dtb.hits                                0                       # DTB hits
system.cpu0.dtb.misses                              0                       # DTB misses
system.cpu0.dtb.read_accesses                       0                       # DTB read accesses
system.cpu0.dtb.read_hits                           0                       # DTB read hits
system.cpu0.dtb.read_misses                         0                       # DTB read misses
system.cpu0.dtb.write_accesses                      0                       # DTB write accesses
system.cpu0.dtb.write_hits                          0                       # DTB write hits
system.cpu0.dtb.write_misses                        0                       # DTB write misses
system.cpu0.fetch.Branches                  380878117                       # Number of branches that fetch encountered
system.cpu0.fetch.CacheLines                285148535                       # Number of cache lines fetched
system.cpu0.fetch.Cycles                   1674510655                       # Number of cycles fetch has run and was not squashing or blocked
system.cpu0.fetch.IcacheSquashes              5489469                       # Number of outstanding Icache misses that were squashed
system.cpu0.fetch.IcacheWaitRetryStallCycles           91                       # Number of stall cycles due to full MSHR
system.cpu0.fetch.Insts                    1637959566                       # Number of instructions fetch has processed
system.cpu0.fetch.MiscStallCycles                  10                       # Number of cycles fetch has spent waiting on interrupts, or bad addresses, or out of MSHRs
system.cpu0.fetch.SquashCycles               29510926                       # Number of cycles fetch has spent squashing
system.cpu0.fetch.branchRate                 0.128040                       # Number of branch fetches per cycle
system.cpu0.fetch.icacheStallCycles         863326509                       # Number of cycles fetch is stalled on an Icache miss
system.cpu0.fetch.predictedBranches         223971684                       # Number of branches that fetch has predicted taken
system.cpu0.fetch.rate                       0.550635                       # Number of inst fetches per cycle
system.cpu0.fetch.rateDist::samples        2552592728                       # Number of instructions fetched each cycle (Total)
system.cpu0.fetch.rateDist::mean             0.642509                       # Number of instructions fetched each cycle (Total)
system.cpu0.fetch.rateDist::stdev            0.877562                       # Number of instructions fetched each cycle (Total)
system.cpu0.fetch.rateDist::underflows              0      0.00%      0.00% # Number of instructions fetched each cycle (Total)
system.cpu0.fetch.rateDist::0              1370706132     53.70%     53.70% # Number of instructions fetched each cycle (Total)
system.cpu0.fetch.rateDist::1               882708468     34.58%     88.28% # Number of instructions fetched each cycle (Total)
system.cpu0.fetch.rateDist::2               185848458      7.28%     95.56% # Number of instructions fetched each cycle (Total)
system.cpu0.fetch.rateDist::3                87040392      3.41%     98.97% # Number of instructions fetched each cycle (Total)
system.cpu0.fetch.rateDist::4                12312358      0.48%     99.45% # Number of instructions fetched each cycle (Total)
system.cpu0.fetch.rateDist::5                10681606      0.42%     99.87% # Number of instructions fetched each cycle (Total)
system.cpu0.fetch.rateDist::6                 1190649      0.05%     99.92% # Number of instructions fetched each cycle (Total)
system.cpu0.fetch.rateDist::7                 2101436      0.08%    100.00% # Number of instructions fetched each cycle (Total)
system.cpu0.fetch.rateDist::8                    3229      0.00%    100.00% # Number of instructions fetched each cycle (Total)
system.cpu0.fetch.rateDist::overflows               0      0.00%    100.00% # Number of instructions fetched each cycle (Total)
system.cpu0.fetch.rateDist::min_value               0                       # Number of instructions fetched each cycle (Total)
system.cpu0.fetch.rateDist::max_value               8                       # Number of instructions fetched each cycle (Total)
system.cpu0.fetch.rateDist::total          2552592728                       # Number of instructions fetched each cycle (Total)
system.cpu0.fp_regfile_reads                       44                       # number of floating regfile reads
system.cpu0.fp_regfile_writes                      23                       # number of floating regfile writes
system.cpu0.idleCycles                      422079925                       # Total number of cycles that the CPU has spent unscheduled due to idling
system.cpu0.iew.branchMispredicts             9385130                       # Number of branch mispredicts detected at execute
system.cpu0.iew.exec_branches               363089287                       # Number of branches executed
system.cpu0.iew.exec_nop                            0                       # number of nop insts executed
system.cpu0.iew.exec_rate                    0.524327                       # Inst execution rate
system.cpu0.iew.exec_refs                   682807990                       # number of memory reference insts executed
system.cpu0.iew.exec_stores                 202476152                       # Number of stores executed
system.cpu0.iew.exec_swp                            0                       # number of swp insts executed
system.cpu0.iew.iewBlockCycles              424151309                       # Number of cycles IEW is blocking
system.cpu0.iew.iewDispLoadInsts            478289983                       # Number of dispatched load instructions
system.cpu0.iew.iewDispNonSpecInsts           2106311                       # Number of dispatched non-speculative instructions
system.cpu0.iew.iewDispSquashedInsts          4846183                       # Number of squashed instructions skipped by dispatch
system.cpu0.iew.iewDispStoreInsts           207933203                       # Number of dispatched store instructions
system.cpu0.iew.iewDispatchedInsts         1580659411                       # Number of instructions dispatched to IQ
system.cpu0.iew.iewExecLoadInsts            480331838                       # Number of load instructions executed
system.cpu0.iew.iewExecSquashedInsts          7939431                       # Number of squashed instructions skipped in execute
system.cpu0.iew.iewExecutedInsts           1559700512                       # Number of executed instructions
system.cpu0.iew.iewIQFullEvents               1503128                       # Number of times the IQ has become full, causing a stall
system.cpu0.iew.iewIdleCycles                       0                       # Number of cycles IEW is idle
system.cpu0.iew.iewLSQFullEvents             18207506                       # Number of times the LSQ has become full, causing a stall
system.cpu0.iew.iewSquashCycles               9265468                       # Number of cycles IEW is squashing
system.cpu0.iew.iewUnblockCycles             22624242                       # Number of cycles IEW is unblocking
system.cpu0.iew.lsq.thread0.blockedLoads            0                       # Number of blocked loads due to partial load-store forwarding
system.cpu0.iew.lsq.thread0.cacheBlocked       902873                       # Number of times an access to memory failed due to the cache being blocked
system.cpu0.iew.lsq.thread0.forwLoads        34804588                       # Number of loads that had data forwarded from stores
system.cpu0.iew.lsq.thread0.ignoredResponses        33695                       # Number of memory responses ignored because the instruction is squashed
system.cpu0.iew.lsq.thread0.invAddrLoads            0                       # Number of loads ignored due to an invalid address
system.cpu0.iew.lsq.thread0.invAddrSwpfs            0                       # Number of software prefetches ignored due to an invalid address
system.cpu0.iew.lsq.thread0.memOrderViolation        16641                       # Number of memory ordering violations
system.cpu0.iew.lsq.thread0.rescheduledLoads      8442990                       # Number of loads that were rescheduled
system.cpu0.iew.lsq.thread0.squashedLoads     54584911                       # Number of loads squashed
system.cpu0.iew.lsq.thread0.squashedStores     40388349                       # Number of stores squashed
system.cpu0.iew.memOrderViolationEvents         16641                       # Number of memory order violations
system.cpu0.iew.predictedNotTakenIncorrect       549347                       # Number of branches that were predicted not taken incorrectly
system.cpu0.iew.predictedTakenIncorrect       8835783                       # Number of branches that were predicted taken incorrectly
system.cpu0.iew.wb_consumers                687589080                       # num instructions consuming a value
system.cpu0.iew.wb_count                   1544601308                       # cumulative count of insts written-back
system.cpu0.iew.wb_fanout                    0.845786                       # average fanout of values written-back
system.cpu0.iew.wb_producers                581553505                       # num instructions producing a value
system.cpu0.iew.wb_rate                      0.519251                       # insts written-back per cycle
system.cpu0.iew.wb_sent                    1544771738                       # cumulative count of insts sent to commit
system.cpu0.int_regfile_reads              1926485785                       # number of integer regfile reads
system.cpu0.int_regfile_writes              993900571                       # number of integer regfile writes
system.cpu0.ipc                              0.473391                       # IPC: Instructions Per Cycle
system.cpu0.ipc_total                        0.473391                       # IPC: Total IPC of All Threads
system.cpu0.iq.FU_type_0::No_OpClass          4205638      0.27%      0.27% # Type of FU issued
system.cpu0.iq.FU_type_0::IntAlu            862880605     55.04%     55.31% # Type of FU issued
system.cpu0.iq.FU_type_0::IntMult            12624772      0.81%     56.12% # Type of FU issued
system.cpu0.iq.FU_type_0::IntDiv              3673896      0.23%     56.35% # Type of FU issued
system.cpu0.iq.FU_type_0::FloatAdd                  0      0.00%     56.35% # Type of FU issued
system.cpu0.iq.FU_type_0::FloatCmp                  4      0.00%     56.35% # Type of FU issued
system.cpu0.iq.FU_type_0::FloatCvt                 12      0.00%     56.35% # Type of FU issued
system.cpu0.iq.FU_type_0::FloatMult                 0      0.00%     56.35% # Type of FU issued
system.cpu0.iq.FU_type_0::FloatMultAcc              0      0.00%     56.35% # Type of FU issued
system.cpu0.iq.FU_type_0::FloatDiv                  2      0.00%     56.35% # Type of FU issued
system.cpu0.iq.FU_type_0::FloatMisc                 4      0.00%     56.35% # Type of FU issued
system.cpu0.iq.FU_type_0::FloatSqrt                 0      0.00%     56.35% # Type of FU issued
system.cpu0.iq.FU_type_0::SimdAdd                   0      0.00%     56.35% # Type of FU issued
system.cpu0.iq.FU_type_0::SimdAddAcc                0      0.00%     56.35% # Type of FU issued
system.cpu0.iq.FU_type_0::SimdAlu                   0      0.00%     56.35% # Type of FU issued
system.cpu0.iq.FU_type_0::SimdCmp                   0      0.00%     56.35% # Type of FU issued
system.cpu0.iq.FU_type_0::SimdCvt                   0      0.00%     56.35% # Type of FU issued
system.cpu0.iq.FU_type_0::SimdMisc                  0      0.00%     56.35% # Type of FU issued
system.cpu0.iq.FU_type_0::SimdMult                  0      0.00%     56.35% # Type of FU issued
system.cpu0.iq.FU_type_0::SimdMultAcc               0      0.00%     56.35% # Type of FU issued
system.cpu0.iq.FU_type_0::SimdShift                 0      0.00%     56.35% # Type of FU issued
system.cpu0.iq.FU_type_0::SimdShiftAcc              0      0.00%     56.35% # Type of FU issued
system.cpu0.iq.FU_type_0::SimdDiv                   0      0.00%     56.35% # Type of FU issued
system.cpu0.iq.FU_type_0::SimdSqrt                  0      0.00%     56.35% # Type of FU issued
system.cpu0.iq.FU_type_0::SimdFloatAdd              0      0.00%     56.35% # Type of FU issued
system.cpu0.iq.FU_type_0::SimdFloatAlu              0      0.00%     56.35% # Type of FU issued
system.cpu0.iq.FU_type_0::SimdFloatCmp              0      0.00%     56.35% # Type of FU issued
system.cpu0.iq.FU_type_0::SimdFloatCvt              0      0.00%     56.35% # Type of FU issued
system.cpu0.iq.FU_type_0::SimdFloatDiv              0      0.00%     56.35% # Type of FU issued
system.cpu0.iq.FU_type_0::SimdFloatMisc             0      0.00%     56.35% # Type of FU issued
system.cpu0.iq.FU_type_0::SimdFloatMult             0      0.00%     56.35% # Type of FU issued
system.cpu0.iq.FU_type_0::SimdFloatMultAcc            0      0.00%     56.35% # Type of FU issued
system.cpu0.iq.FU_type_0::SimdFloatSqrt             0      0.00%     56.35% # Type of FU issued
system.cpu0.iq.FU_type_0::SimdReduceAdd             0      0.00%     56.35% # Type of FU issued
system.cpu0.iq.FU_type_0::SimdReduceAlu             0      0.00%     56.35% # Type of FU issued
system.cpu0.iq.FU_type_0::SimdReduceCmp             0      0.00%     56.35% # Type of FU issued
system.cpu0.iq.FU_type_0::SimdFloatReduceAdd            0      0.00%     56.35% # Type of FU issued
system.cpu0.iq.FU_type_0::SimdFloatReduceCmp            0      0.00%     56.35% # Type of FU issued
system.cpu0.iq.FU_type_0::SimdAes                   0      0.00%     56.35% # Type of FU issued
system.cpu0.iq.FU_type_0::SimdAesMix                0      0.00%     56.35% # Type of FU issued
system.cpu0.iq.FU_type_0::SimdSha1Hash              0      0.00%     56.35% # Type of FU issued
system.cpu0.iq.FU_type_0::SimdSha1Hash2             0      0.00%     56.35% # Type of FU issued
system.cpu0.iq.FU_type_0::SimdSha256Hash            0      0.00%     56.35% # Type of FU issued
system.cpu0.iq.FU_type_0::SimdSha256Hash2            0      0.00%     56.35% # Type of FU issued
system.cpu0.iq.FU_type_0::SimdShaSigma2             0      0.00%     56.35% # Type of FU issued
system.cpu0.iq.FU_type_0::SimdShaSigma3             0      0.00%     56.35% # Type of FU issued
system.cpu0.iq.FU_type_0::SimdPredAlu               0      0.00%     56.35% # Type of FU issued
system.cpu0.iq.FU_type_0::MemRead           483707852     30.86%     87.21% # Type of FU issued
system.cpu0.iq.FU_type_0::MemWrite          200547130     12.79%    100.00% # Type of FU issued
system.cpu0.iq.FU_type_0::FloatMemRead              9      0.00%    100.00% # Type of FU issued
system.cpu0.iq.FU_type_0::FloatMemWrite            20      0.00%    100.00% # Type of FU issued
system.cpu0.iq.FU_type_0::IprAccess                 0      0.00%    100.00% # Type of FU issued
system.cpu0.iq.FU_type_0::InstPrefetch              0      0.00%    100.00% # Type of FU issued
system.cpu0.iq.FU_type_0::total            1567639944                       # Type of FU issued
system.cpu0.iq.fp_alu_accesses                     55                       # Number of floating point alu accesses
system.cpu0.iq.fp_inst_queue_reads                106                       # Number of floating instruction queue reads
system.cpu0.iq.fp_inst_queue_wakeup_accesses           51                       # Number of floating instruction queue wakeup accesses
system.cpu0.iq.fp_inst_queue_writes                52                       # Number of floating instruction queue writes
system.cpu0.iq.fu_busy_cnt                    6562919                       # FU busy when requested
system.cpu0.iq.fu_busy_rate                  0.004186                       # FU busy rate (busy events/executed inst)
system.cpu0.iq.fu_full::No_OpClass                  0      0.00%      0.00% # attempts to use FU when none available
system.cpu0.iq.fu_full::IntAlu                1250412     19.05%     19.05% # attempts to use FU when none available
system.cpu0.iq.fu_full::IntMult                  1094      0.02%     19.07% # attempts to use FU when none available
system.cpu0.iq.fu_full::IntDiv                1627786     24.80%     43.87% # attempts to use FU when none available
system.cpu0.iq.fu_full::FloatAdd                    0      0.00%     43.87% # attempts to use FU when none available
system.cpu0.iq.fu_full::FloatCmp                    0      0.00%     43.87% # attempts to use FU when none available
system.cpu0.iq.fu_full::FloatCvt                    0      0.00%     43.87% # attempts to use FU when none available
system.cpu0.iq.fu_full::FloatMult                   0      0.00%     43.87% # attempts to use FU when none available
system.cpu0.iq.fu_full::FloatMultAcc                0      0.00%     43.87% # attempts to use FU when none available
system.cpu0.iq.fu_full::FloatDiv                    0      0.00%     43.87% # attempts to use FU when none available
system.cpu0.iq.fu_full::FloatMisc                   0      0.00%     43.87% # attempts to use FU when none available
system.cpu0.iq.fu_full::FloatSqrt                   0      0.00%     43.87% # attempts to use FU when none available
system.cpu0.iq.fu_full::SimdAdd                     0      0.00%     43.87% # attempts to use FU when none available
system.cpu0.iq.fu_full::SimdAddAcc                  0      0.00%     43.87% # attempts to use FU when none available
system.cpu0.iq.fu_full::SimdAlu                     0      0.00%     43.87% # attempts to use FU when none available
system.cpu0.iq.fu_full::SimdCmp                     0      0.00%     43.87% # attempts to use FU when none available
system.cpu0.iq.fu_full::SimdCvt                     0      0.00%     43.87% # attempts to use FU when none available
system.cpu0.iq.fu_full::SimdMisc                    0      0.00%     43.87% # attempts to use FU when none available
system.cpu0.iq.fu_full::SimdMult                    0      0.00%     43.87% # attempts to use FU when none available
system.cpu0.iq.fu_full::SimdMultAcc                 0      0.00%     43.87% # attempts to use FU when none available
system.cpu0.iq.fu_full::SimdShift                   0      0.00%     43.87% # attempts to use FU when none available
system.cpu0.iq.fu_full::SimdShiftAcc                0      0.00%     43.87% # attempts to use FU when none available
system.cpu0.iq.fu_full::SimdDiv                     0      0.00%     43.87% # attempts to use FU when none available
system.cpu0.iq.fu_full::SimdSqrt                    0      0.00%     43.87% # attempts to use FU when none available
system.cpu0.iq.fu_full::SimdFloatAdd                0      0.00%     43.87% # attempts to use FU when none available
system.cpu0.iq.fu_full::SimdFloatAlu                0      0.00%     43.87% # attempts to use FU when none available
system.cpu0.iq.fu_full::SimdFloatCmp                0      0.00%     43.87% # attempts to use FU when none available
system.cpu0.iq.fu_full::SimdFloatCvt                0      0.00%     43.87% # attempts to use FU when none available
system.cpu0.iq.fu_full::SimdFloatDiv                0      0.00%     43.87% # attempts to use FU when none available
system.cpu0.iq.fu_full::SimdFloatMisc               0      0.00%     43.87% # attempts to use FU when none available
system.cpu0.iq.fu_full::SimdFloatMult               0      0.00%     43.87% # attempts to use FU when none available
system.cpu0.iq.fu_full::SimdFloatMultAcc            0      0.00%     43.87% # attempts to use FU when none available
system.cpu0.iq.fu_full::SimdFloatSqrt               0      0.00%     43.87% # attempts to use FU when none available
system.cpu0.iq.fu_full::SimdReduceAdd               0      0.00%     43.87% # attempts to use FU when none available
system.cpu0.iq.fu_full::SimdReduceAlu               0      0.00%     43.87% # attempts to use FU when none available
system.cpu0.iq.fu_full::SimdReduceCmp               0      0.00%     43.87% # attempts to use FU when none available
system.cpu0.iq.fu_full::SimdFloatReduceAdd            0      0.00%     43.87% # attempts to use FU when none available
system.cpu0.iq.fu_full::SimdFloatReduceCmp            0      0.00%     43.87% # attempts to use FU when none available
system.cpu0.iq.fu_full::SimdAes                     0      0.00%     43.87% # attempts to use FU when none available
system.cpu0.iq.fu_full::SimdAesMix                  0      0.00%     43.87% # attempts to use FU when none available
system.cpu0.iq.fu_full::SimdSha1Hash                0      0.00%     43.87% # attempts to use FU when none available
system.cpu0.iq.fu_full::SimdSha1Hash2               0      0.00%     43.87% # attempts to use FU when none available
system.cpu0.iq.fu_full::SimdSha256Hash              0      0.00%     43.87% # attempts to use FU when none available
system.cpu0.iq.fu_full::SimdSha256Hash2             0      0.00%     43.87% # attempts to use FU when none available
system.cpu0.iq.fu_full::SimdShaSigma2               0      0.00%     43.87% # attempts to use FU when none available
system.cpu0.iq.fu_full::SimdShaSigma3               0      0.00%     43.87% # attempts to use FU when none available
system.cpu0.iq.fu_full::SimdPredAlu                 0      0.00%     43.87% # attempts to use FU when none available
system.cpu0.iq.fu_full::MemRead               2960450     45.11%     88.98% # attempts to use FU when none available
system.cpu0.iq.fu_full::MemWrite               723173     11.02%    100.00% # attempts to use FU when none available
system.cpu0.iq.fu_full::FloatMemRead                0      0.00%    100.00% # attempts to use FU when none available
system.cpu0.iq.fu_full::FloatMemWrite               4      0.00%    100.00% # attempts to use FU when none available
system.cpu0.iq.fu_full::IprAccess                   0      0.00%    100.00% # attempts to use FU when none available
system.cpu0.iq.fu_full::InstPrefetch                0      0.00%    100.00% # attempts to use FU when none available
system.cpu0.iq.int_alu_accesses            1569997170                       # Number of integer alu accesses
system.cpu0.iq.int_inst_queue_reads        5695013238                       # Number of integer instruction queue reads
system.cpu0.iq.int_inst_queue_wakeup_accesses   1544601257                       # Number of integer instruction queue wakeup accesses
system.cpu0.iq.int_inst_queue_writes       1751048555                       # Number of integer instruction queue writes
system.cpu0.iq.iqInstsAdded                1574349055                       # Number of instructions added to the IQ (excludes non-spec)
system.cpu0.iq.iqInstsIssued               1567639944                       # Number of instructions issued
system.cpu0.iq.iqNonSpecInstsAdded            6310356                       # Number of non-speculative instructions added to the IQ
system.cpu0.iq.iqSquashedInstsExamined      170372905                       # Number of squashed instructions iterated over during squash; mainly for profiling
system.cpu0.iq.iqSquashedInstsIssued           577810                       # Number of squashed instructions issued
system.cpu0.iq.iqSquashedNonSpecRemoved           537                       # Number of squashed non-spec instructions that were removed
system.cpu0.iq.iqSquashedOperandsExamined     39637546                       # Number of squashed operands that are examined and possibly removed from graph
system.cpu0.iq.issued_per_cycle::samples   2552592728                       # Number of insts issued each cycle
system.cpu0.iq.issued_per_cycle::mean        0.614136                       # Number of insts issued each cycle
system.cpu0.iq.issued_per_cycle::stdev       0.848382                       # Number of insts issued each cycle
system.cpu0.iq.issued_per_cycle::underflows            0      0.00%      0.00% # Number of insts issued each cycle
system.cpu0.iq.issued_per_cycle::0         1431506466     56.08%     56.08% # Number of insts issued each cycle
system.cpu0.iq.issued_per_cycle::1          780519902     30.58%     86.66% # Number of insts issued each cycle
system.cpu0.iq.issued_per_cycle::2          273489671     10.71%     97.37% # Number of insts issued each cycle
system.cpu0.iq.issued_per_cycle::3           43846575      1.72%     99.09% # Number of insts issued each cycle
system.cpu0.iq.issued_per_cycle::4           14621617      0.57%     99.66% # Number of insts issued each cycle
system.cpu0.iq.issued_per_cycle::5            3183023      0.12%     99.79% # Number of insts issued each cycle
system.cpu0.iq.issued_per_cycle::6            4096697      0.16%     99.95% # Number of insts issued each cycle
system.cpu0.iq.issued_per_cycle::7            1011006      0.04%     99.99% # Number of insts issued each cycle
system.cpu0.iq.issued_per_cycle::8             317771      0.01%    100.00% # Number of insts issued each cycle
system.cpu0.iq.issued_per_cycle::overflows            0      0.00%    100.00% # Number of insts issued each cycle
system.cpu0.iq.issued_per_cycle::min_value            0                       # Number of insts issued each cycle
system.cpu0.iq.issued_per_cycle::max_value            8                       # Number of insts issued each cycle
system.cpu0.iq.issued_per_cycle::total     2552592728                       # Number of insts issued each cycle
system.cpu0.iq.rate                          0.526996                       # Inst issue rate
system.cpu0.iq.vec_alu_accesses                     0                       # Number of vector alu accesses
system.cpu0.iq.vec_inst_queue_reads                 0                       # Number of vector instruction queue reads
system.cpu0.iq.vec_inst_queue_wakeup_accesses            0                       # Number of vector instruction queue wakeup accesses
system.cpu0.iq.vec_inst_queue_writes                0                       # Number of vector instruction queue writes
system.cpu0.itb.accesses                            0                       # DTB accesses
system.cpu0.itb.hits                                0                       # DTB hits
system.cpu0.itb.misses                              0                       # DTB misses
system.cpu0.itb.read_accesses                       0                       # DTB read accesses
system.cpu0.itb.read_hits                           0                       # DTB read hits
system.cpu0.itb.read_misses                         0                       # DTB read misses
system.cpu0.itb.write_accesses                      0                       # DTB write accesses
system.cpu0.itb.write_hits                          0                       # DTB write hits
system.cpu0.itb.write_misses                        0                       # DTB write misses
system.cpu0.memDep0.conflictingLoads         22033426                       # Number of conflicting loads.
system.cpu0.memDep0.conflictingStores        12299879                       # Number of conflicting stores.
system.cpu0.memDep0.insertedLoads           478289983                       # Number of loads inserted to the mem dependence unit.
system.cpu0.memDep0.insertedStores          207933203                       # Number of stores inserted to the mem dependence unit.
system.cpu0.misc_regfile_reads                   1902                       # number of misc regfile reads
system.cpu0.misc_regfile_writes                    22                       # number of misc regfile writes
system.cpu0.numCycles                      2974672653                       # number of cpu cycles simulated
system.cpu0.numWorkItemsCompleted                   0                       # number of work items this cpu completed
system.cpu0.numWorkItemsStarted                     0                       # number of work items this cpu started
system.cpu0.quiesceCycles                    13399086                       # Total number of cycles that CPU has spent quiesced or waiting for an interrupt
system.cpu0.rename.BlockCycles              463920239                       # Number of cycles rename is blocking
system.cpu0.rename.CommittedMaps            911011425                       # Number of HB maps that are committed
system.cpu0.rename.IQFullEvents              19421051                       # Number of times rename has blocked due to IQ full
system.cpu0.rename.IdleCycles               869514265                       # Number of cycles rename is idle
system.cpu0.rename.LQFullEvents              34390552                       # Number of times rename has blocked due to LQ full
system.cpu0.rename.ROBFullEvents                24300                       # Number of times rename has blocked due to ROB full
system.cpu0.rename.RenameLookups           1975991021                       # Number of register rename lookups that rename has made
system.cpu0.rename.RenamedInsts            1596418239                       # Number of instructions processed by rename
system.cpu0.rename.RenamedOperands         1031815174                       # Number of destination operands rename has renamed
system.cpu0.rename.RunCycles               1103980832                       # Number of cycles rename is running
system.cpu0.rename.SQFullEvents              53764874                       # Number of times rename has blocked due to SQ full
system.cpu0.rename.SquashCycles               9265468                       # Number of cycles rename is squashing
system.cpu0.rename.UnblockCycles            105744247                       # Number of cycles rename is unblocking
system.cpu0.rename.UndoneMaps               120803681                       # Number of HB maps that are undone due to squashing
system.cpu0.rename.fp_rename_lookups               44                       # Number of floating rename lookups
system.cpu0.rename.int_rename_lookups      1975990977                       # Number of integer rename lookups
system.cpu0.rename.serializeStallCycles        167677                       # count of cycles rename stalled for serializing inst
system.cpu0.rename.serializingInsts              5947                       # count of serializing insts renamed
system.cpu0.rename.skidInsts                 39539699                       # count of insts added to the skid buffer
system.cpu0.rename.tempSerializingInsts          5935                       # count of temporary serializing insts renamed
system.cpu0.rob.rob_reads                  4059073758                       # The number of ROB reads
system.cpu0.rob.rob_writes                 3189445459                       # The number of ROB writes
system.cpu0.timesIdled                       25991379                       # Number of times that the entire CPU went into an idle state and unscheduled itself
system.cpu0.workload.numSyscalls                 1869                       # Number of system calls
system.cpu1.branchPred.BTBCorrect                   0                       # Number of correct BTB predictions (this stat may not work properly.
system.cpu1.branchPred.BTBHitPct            81.335519                       # BTB Hit Percentage
system.cpu1.branchPred.BTBHits               25373975                       # Number of BTB hits
system.cpu1.branchPred.BTBLookups            31196672                       # Number of BTB lookups
system.cpu1.branchPred.RASInCorrect                 0                       # Number of incorrect RAS predictions.
system.cpu1.branchPred.condIncorrect          2905552                       # Number of conditional branches incorrect
system.cpu1.branchPred.condPredicted         33720710                       # Number of conditional branches predicted
system.cpu1.branchPred.indirectHits           2181895                       # Number of indirect target hits.
system.cpu1.branchPred.indirectLookups        2198254                       # Number of indirect predictor lookups.
system.cpu1.branchPred.indirectMisses           16359                       # Number of indirect misses.
system.cpu1.branchPred.lookups               42696253                       # Number of BP lookups
system.cpu1.branchPred.usedRAS                      0                       # Number of times the RAS was used to get a target.
system.cpu1.branchPredindirectMispredicted       148249                       # Number of mispredicted indirect branches.
system.cpu1.commit.amos                       2100009                       # Number of atomic instructions committed
system.cpu1.commit.branchMispredicts          1967806                       # The number of times a branch was mispredicted
system.cpu1.commit.branches                  34312308                       # Number of branches committed
system.cpu1.commit.bw_lim_events              6453298                       # number cycles where commit BW limit reached
system.cpu1.commit.commitNonSpecStalls        6300721                       # The number of times commit has been forced to stall to communicate backwards
system.cpu1.commit.commitSquashedInsts       20172634                       # The number of squashed insts skipped by commit
system.cpu1.commit.committedInsts           158002350                       # Number of instructions committed
system.cpu1.commit.committedOps             160102540                       # Number of ops (including micro ops) committed
system.cpu1.commit.committed_per_cycle::samples    579570000                       # Number of insts commited each cycle
system.cpu1.commit.committed_per_cycle::mean     0.276244                       # Number of insts commited each cycle
system.cpu1.commit.committed_per_cycle::stdev     1.081948                       # Number of insts commited each cycle
system.cpu1.commit.committed_per_cycle::underflows            0      0.00%      0.00% # Number of insts commited each cycle
system.cpu1.commit.committed_per_cycle::0    516290920     89.08%     89.08% # Number of insts commited each cycle
system.cpu1.commit.committed_per_cycle::1     31585633      5.45%     94.53% # Number of insts commited each cycle
system.cpu1.commit.committed_per_cycle::2     12258345      2.12%     96.65% # Number of insts commited each cycle
system.cpu1.commit.committed_per_cycle::3      5855028      1.01%     97.66% # Number of insts commited each cycle
system.cpu1.commit.committed_per_cycle::4      3041715      0.52%     98.18% # Number of insts commited each cycle
system.cpu1.commit.committed_per_cycle::5      2456663      0.42%     98.61% # Number of insts commited each cycle
system.cpu1.commit.committed_per_cycle::6      1040212      0.18%     98.79% # Number of insts commited each cycle
system.cpu1.commit.committed_per_cycle::7       588186      0.10%     98.89% # Number of insts commited each cycle
system.cpu1.commit.committed_per_cycle::8      6453298      1.11%    100.00% # Number of insts commited each cycle
system.cpu1.commit.committed_per_cycle::overflows            0      0.00%    100.00% # Number of insts commited each cycle
system.cpu1.commit.committed_per_cycle::min_value            0                       # Number of insts commited each cycle
system.cpu1.commit.committed_per_cycle::max_value            8                       # Number of insts commited each cycle
system.cpu1.commit.committed_per_cycle::total    579570000                       # Number of insts commited each cycle
system.cpu1.commit.fp_insts                        12                       # Number of committed floating point instructions.
system.cpu1.commit.function_calls             3695470                       # Number of function calls committed.
system.cpu1.commit.int_insts                152795669                       # Number of committed integer instructions.
system.cpu1.commit.loads                     38886340                       # Number of loads committed
system.cpu1.commit.membars                    4200138                       # Number of memory barriers committed
system.cpu1.commit.op_class_0::No_OpClass      4200138      2.62%      2.62% # Class of committed instruction
system.cpu1.commit.op_class_0::IntAlu        98339141     61.42%     64.05% # Class of committed instruction
system.cpu1.commit.op_class_0::IntMult         265371      0.17%     64.21% # Class of committed instruction
system.cpu1.commit.op_class_0::IntDiv          526963      0.33%     64.54% # Class of committed instruction
system.cpu1.commit.op_class_0::FloatAdd             0      0.00%     64.54% # Class of committed instruction
system.cpu1.commit.op_class_0::FloatCmp             0      0.00%     64.54% # Class of committed instruction
system.cpu1.commit.op_class_0::FloatCvt             0      0.00%     64.54% # Class of committed instruction
system.cpu1.commit.op_class_0::FloatMult            0      0.00%     64.54% # Class of committed instruction
system.cpu1.commit.op_class_0::FloatMultAcc            0      0.00%     64.54% # Class of committed instruction
system.cpu1.commit.op_class_0::FloatDiv             0      0.00%     64.54% # Class of committed instruction
system.cpu1.commit.op_class_0::FloatMisc            0      0.00%     64.54% # Class of committed instruction
system.cpu1.commit.op_class_0::FloatSqrt            0      0.00%     64.54% # Class of committed instruction
system.cpu1.commit.op_class_0::SimdAdd              0      0.00%     64.54% # Class of committed instruction
system.cpu1.commit.op_class_0::SimdAddAcc            0      0.00%     64.54% # Class of committed instruction
system.cpu1.commit.op_class_0::SimdAlu              0      0.00%     64.54% # Class of committed instruction
system.cpu1.commit.op_class_0::SimdCmp              0      0.00%     64.54% # Class of committed instruction
system.cpu1.commit.op_class_0::SimdCvt              0      0.00%     64.54% # Class of committed instruction
system.cpu1.commit.op_class_0::SimdMisc             0      0.00%     64.54% # Class of committed instruction
system.cpu1.commit.op_class_0::SimdMult             0      0.00%     64.54% # Class of committed instruction
system.cpu1.commit.op_class_0::SimdMultAcc            0      0.00%     64.54% # Class of committed instruction
system.cpu1.commit.op_class_0::SimdShift            0      0.00%     64.54% # Class of committed instruction
system.cpu1.commit.op_class_0::SimdShiftAcc            0      0.00%     64.54% # Class of committed instruction
system.cpu1.commit.op_class_0::SimdDiv              0      0.00%     64.54% # Class of committed instruction
system.cpu1.commit.op_class_0::SimdSqrt             0      0.00%     64.54% # Class of committed instruction
system.cpu1.commit.op_class_0::SimdFloatAdd            0      0.00%     64.54% # Class of committed instruction
system.cpu1.commit.op_class_0::SimdFloatAlu            0      0.00%     64.54% # Class of committed instruction
system.cpu1.commit.op_class_0::SimdFloatCmp            0      0.00%     64.54% # Class of committed instruction
system.cpu1.commit.op_class_0::SimdFloatCvt            0      0.00%     64.54% # Class of committed instruction
system.cpu1.commit.op_class_0::SimdFloatDiv            0      0.00%     64.54% # Class of committed instruction
system.cpu1.commit.op_class_0::SimdFloatMisc            0      0.00%     64.54% # Class of committed instruction
system.cpu1.commit.op_class_0::SimdFloatMult            0      0.00%     64.54% # Class of committed instruction
system.cpu1.commit.op_class_0::SimdFloatMultAcc            0      0.00%     64.54% # Class of committed instruction
system.cpu1.commit.op_class_0::SimdFloatSqrt            0      0.00%     64.54% # Class of committed instruction
system.cpu1.commit.op_class_0::SimdReduceAdd            0      0.00%     64.54% # Class of committed instruction
system.cpu1.commit.op_class_0::SimdReduceAlu            0      0.00%     64.54% # Class of committed instruction
system.cpu1.commit.op_class_0::SimdReduceCmp            0      0.00%     64.54% # Class of committed instruction
system.cpu1.commit.op_class_0::SimdFloatReduceAdd            0      0.00%     64.54% # Class of committed instruction
system.cpu1.commit.op_class_0::SimdFloatReduceCmp            0      0.00%     64.54% # Class of committed instruction
system.cpu1.commit.op_class_0::SimdAes              0      0.00%     64.54% # Class of committed instruction
system.cpu1.commit.op_class_0::SimdAesMix            0      0.00%     64.54% # Class of committed instruction
system.cpu1.commit.op_class_0::SimdSha1Hash            0      0.00%     64.54% # Class of committed instruction
system.cpu1.commit.op_class_0::SimdSha1Hash2            0      0.00%     64.54% # Class of committed instruction
system.cpu1.commit.op_class_0::SimdSha256Hash            0      0.00%     64.54% # Class of committed instruction
system.cpu1.commit.op_class_0::SimdSha256Hash2            0      0.00%     64.54% # Class of committed instruction
system.cpu1.commit.op_class_0::SimdShaSigma2            0      0.00%     64.54% # Class of committed instruction
system.cpu1.commit.op_class_0::SimdShaSigma3            0      0.00%     64.54% # Class of committed instruction
system.cpu1.commit.op_class_0::SimdPredAlu            0      0.00%     64.54% # Class of committed instruction
system.cpu1.commit.op_class_0::MemRead       40986349     25.60%     90.14% # Class of committed instruction
system.cpu1.commit.op_class_0::MemWrite      15784566      9.86%    100.00% # Class of committed instruction
system.cpu1.commit.op_class_0::FloatMemRead            0      0.00%    100.00% # Class of committed instruction
system.cpu1.commit.op_class_0::FloatMemWrite           12      0.00%    100.00% # Class of committed instruction
system.cpu1.commit.op_class_0::IprAccess            0      0.00%    100.00% # Class of committed instruction
system.cpu1.commit.op_class_0::InstPrefetch            0      0.00%    100.00% # Class of committed instruction
system.cpu1.commit.op_class_0::total        160102540                       # Class of committed instruction
system.cpu1.commit.refs                      56770927                       # Number of memory references committed
system.cpu1.commit.swp_count                        0                       # Number of s/w prefetches committed
system.cpu1.commit.vec_insts                        0                       # Number of committed Vector instructions.
system.cpu1.committedInsts                  158002350                       # Number of Instructions Simulated
system.cpu1.committedOps                    160102540                       # Number of Ops (including micro ops) Simulated
system.cpu1.cpi                              3.734032                       # CPI: Cycles Per Instruction
system.cpu1.cpi_total                        3.734032                       # CPI: Total CPI of All Threads
system.cpu1.decode.BlockedCycles            443707135                       # Number of cycles decode is blocked
system.cpu1.decode.BranchMispred               953451                       # Number of times decode detected a branch misprediction
system.cpu1.decode.BranchResolved            23800905                       # Number of times decode resolved a branch
system.cpu1.decode.DecodedInsts             187856217                       # Number of instructions handled by decode
system.cpu1.decode.IdleCycles                42141968                       # Number of cycles decode is idle
system.cpu1.decode.RunCycles                 89740226                       # Number of cycles decode is running
system.cpu1.decode.SquashCycles               1969180                       # Number of cycles decode is squashing
system.cpu1.decode.SquashedInsts              2381121                       # Number of squashed instructions handled by decode
system.cpu1.decode.UnblockCycles              6023354                       # Number of cycles decode is unblocking
system.cpu1.dtb.accesses                            0                       # DTB accesses
system.cpu1.dtb.hits                                0                       # DTB hits
system.cpu1.dtb.misses                              0                       # DTB misses
system.cpu1.dtb.read_accesses                       0                       # DTB read accesses
system.cpu1.dtb.read_hits                           0                       # DTB read hits
system.cpu1.dtb.read_misses                         0                       # DTB read misses
system.cpu1.dtb.write_accesses                      0                       # DTB write accesses
system.cpu1.dtb.write_hits                          0                       # DTB write hits
system.cpu1.dtb.write_misses                        0                       # DTB write misses
system.cpu1.fetch.Branches                   42696253                       # Number of branches that fetch encountered
system.cpu1.fetch.CacheLines                 33671316                       # Number of cache lines fetched
system.cpu1.fetch.Cycles                    535233294                       # Number of cycles fetch has run and was not squashing or blocked
system.cpu1.fetch.IcacheSquashes               789669                       # Number of outstanding Icache misses that were squashed
system.cpu1.fetch.Insts                     195262341                       # Number of instructions fetch has processed
system.cpu1.fetch.MiscStallCycles                   1                       # Number of cycles fetch has spent waiting on interrupts, or bad addresses, or out of MSHRs
system.cpu1.fetch.SquashCycles                5813852                       # Number of cycles fetch has spent squashing
system.cpu1.fetch.branchRate                 0.072368                       # Number of branch fetches per cycle
system.cpu1.fetch.icacheStallCycles          45441642                       # Number of cycles fetch is stalled on an Icache miss
system.cpu1.fetch.predictedBranches          27555870                       # Number of branches that fetch has predicted taken
system.cpu1.fetch.rate                       0.330961                       # Number of inst fetches per cycle
system.cpu1.fetch.rateDist::samples         583581863                       # Number of instructions fetched each cycle (Total)
system.cpu1.fetch.rateDist::mean             0.338192                       # Number of instructions fetched each cycle (Total)
system.cpu1.fetch.rateDist::stdev            0.763813                       # Number of instructions fetched each cycle (Total)
system.cpu1.fetch.rateDist::underflows              0      0.00%      0.00% # Number of instructions fetched each cycle (Total)
system.cpu1.fetch.rateDist::0               453305640     77.68%     77.68% # Number of instructions fetched each cycle (Total)
system.cpu1.fetch.rateDist::1                87780019     15.04%     92.72% # Number of instructions fetched each cycle (Total)
system.cpu1.fetch.rateDist::2                26817354      4.60%     97.31% # Number of instructions fetched each cycle (Total)
system.cpu1.fetch.rateDist::3                10407156      1.78%     99.10% # Number of instructions fetched each cycle (Total)
system.cpu1.fetch.rateDist::4                 2328015      0.40%     99.50% # Number of instructions fetched each cycle (Total)
system.cpu1.fetch.rateDist::5                 2248164      0.39%     99.88% # Number of instructions fetched each cycle (Total)
system.cpu1.fetch.rateDist::6                  695060      0.12%    100.00% # Number of instructions fetched each cycle (Total)
system.cpu1.fetch.rateDist::7                     204      0.00%    100.00% # Number of instructions fetched each cycle (Total)
system.cpu1.fetch.rateDist::8                     251      0.00%    100.00% # Number of instructions fetched each cycle (Total)
system.cpu1.fetch.rateDist::overflows               0      0.00%    100.00% # Number of instructions fetched each cycle (Total)
system.cpu1.fetch.rateDist::min_value               0                       # Number of instructions fetched each cycle (Total)
system.cpu1.fetch.rateDist::max_value               8                       # Number of instructions fetched each cycle (Total)
system.cpu1.fetch.rateDist::total           583581863                       # Number of instructions fetched each cycle (Total)
system.cpu1.fp_regfile_reads                       12                       # number of floating regfile reads
system.cpu1.idleCycles                        6403962                       # Total number of cycles that the CPU has spent unscheduled due to idling
system.cpu1.iew.branchMispredicts             2044927                       # Number of branch mispredicts detected at execute
system.cpu1.iew.exec_branches                37401990                       # Number of branches executed
system.cpu1.iew.exec_nop                            0                       # number of nop insts executed
system.cpu1.iew.exec_rate                    0.296088                       # Inst execution rate
system.cpu1.iew.exec_refs                    62270167                       # number of memory reference insts executed
system.cpu1.iew.exec_stores                  18543965                       # Number of stores executed
system.cpu1.iew.exec_swp                            0                       # number of swp insts executed
system.cpu1.iew.iewBlockCycles              356840489                       # Number of cycles IEW is blocking
system.cpu1.iew.iewDispLoadInsts             44128327                       # Number of dispatched load instructions
system.cpu1.iew.iewDispNonSpecInsts           2100718                       # Number of dispatched non-speculative instructions
system.cpu1.iew.iewDispSquashedInsts          1780313                       # Number of squashed instructions skipped by dispatch
system.cpu1.iew.iewDispStoreInsts            19189730                       # Number of dispatched store instructions
system.cpu1.iew.iewDispatchedInsts          180231267                       # Number of instructions dispatched to IQ
system.cpu1.iew.iewExecLoadInsts             43726202                       # Number of load instructions executed
system.cpu1.iew.iewExecSquashedInsts          1625139                       # Number of squashed instructions skipped in execute
system.cpu1.iew.iewExecutedInsts            174687864                       # Number of executed instructions
system.cpu1.iew.iewIQFullEvents               1314124                       # Number of times the IQ has become full, causing a stall
system.cpu1.iew.iewIdleCycles                       0                       # Number of cycles IEW is idle
system.cpu1.iew.iewLSQFullEvents              8861305                       # Number of times the LSQ has become full, causing a stall
system.cpu1.iew.iewSquashCycles               1969180                       # Number of cycles IEW is squashing
system.cpu1.iew.iewUnblockCycles             12968133                       # Number of cycles IEW is unblocking
system.cpu1.iew.lsq.thread0.blockedLoads            0                       # Number of blocked loads due to partial load-store forwarding
system.cpu1.iew.lsq.thread0.cacheBlocked       235153                       # Number of times an access to memory failed due to the cache being blocked
system.cpu1.iew.lsq.thread0.forwLoads         1762319                       # Number of loads that had data forwarded from stores
system.cpu1.iew.lsq.thread0.ignoredResponses        30818                       # Number of memory responses ignored because the instruction is squashed
system.cpu1.iew.lsq.thread0.invAddrLoads            0                       # Number of loads ignored due to an invalid address
system.cpu1.iew.lsq.thread0.invAddrSwpfs            0                       # Number of software prefetches ignored due to an invalid address
system.cpu1.iew.lsq.thread0.memOrderViolation         1823                       # Number of memory ordering violations
system.cpu1.iew.lsq.thread0.rescheduledLoads         4052                       # Number of loads that were rescheduled
system.cpu1.iew.lsq.thread0.squashedLoads      5241987                       # Number of loads squashed
system.cpu1.iew.lsq.thread0.squashedStores      1305143                       # Number of stores squashed
system.cpu1.iew.memOrderViolationEvents          1823                       # Number of memory order violations
system.cpu1.iew.predictedNotTakenIncorrect       424433                       # Number of branches that were predicted not taken incorrectly
system.cpu1.iew.predictedTakenIncorrect       1620494                       # Number of branches that were predicted taken incorrectly
system.cpu1.iew.wb_consumers                 97222000                       # num instructions consuming a value
system.cpu1.iew.wb_count                    172724033                       # cumulative count of insts written-back
system.cpu1.iew.wb_fanout                    0.808077                       # average fanout of values written-back
system.cpu1.iew.wb_producers                 78562869                       # num instructions producing a value
system.cpu1.iew.wb_rate                      0.292760                       # insts written-back per cycle
system.cpu1.iew.wb_sent                     172820765                       # cumulative count of insts sent to commit
system.cpu1.int_regfile_reads               220390450                       # number of integer regfile reads
system.cpu1.int_regfile_writes              116684676                       # number of integer regfile writes
system.cpu1.ipc                              0.267807                       # IPC: Instructions Per Cycle
system.cpu1.ipc_total                        0.267807                       # IPC: Total IPC of All Threads
system.cpu1.iq.FU_type_0::No_OpClass          4200249      2.38%      2.38% # Type of FU issued
system.cpu1.iq.FU_type_0::IntAlu            108290017     61.42%     63.80% # Type of FU issued
system.cpu1.iq.FU_type_0::IntMult              265419      0.15%     63.95% # Type of FU issued
system.cpu1.iq.FU_type_0::IntDiv               527070      0.30%     64.25% # Type of FU issued
system.cpu1.iq.FU_type_0::FloatAdd                  0      0.00%     64.25% # Type of FU issued
system.cpu1.iq.FU_type_0::FloatCmp                  0      0.00%     64.25% # Type of FU issued
system.cpu1.iq.FU_type_0::FloatCvt                  0      0.00%     64.25% # Type of FU issued
system.cpu1.iq.FU_type_0::FloatMult                 0      0.00%     64.25% # Type of FU issued
system.cpu1.iq.FU_type_0::FloatMultAcc              0      0.00%     64.25% # Type of FU issued
system.cpu1.iq.FU_type_0::FloatDiv                  0      0.00%     64.25% # Type of FU issued
system.cpu1.iq.FU_type_0::FloatMisc                 0      0.00%     64.25% # Type of FU issued
system.cpu1.iq.FU_type_0::FloatSqrt                 0      0.00%     64.25% # Type of FU issued
system.cpu1.iq.FU_type_0::SimdAdd                   0      0.00%     64.25% # Type of FU issued
system.cpu1.iq.FU_type_0::SimdAddAcc                0      0.00%     64.25% # Type of FU issued
system.cpu1.iq.FU_type_0::SimdAlu                   0      0.00%     64.25% # Type of FU issued
system.cpu1.iq.FU_type_0::SimdCmp                   0      0.00%     64.25% # Type of FU issued
system.cpu1.iq.FU_type_0::SimdCvt                   0      0.00%     64.25% # Type of FU issued
system.cpu1.iq.FU_type_0::SimdMisc                  0      0.00%     64.25% # Type of FU issued
system.cpu1.iq.FU_type_0::SimdMult                  0      0.00%     64.25% # Type of FU issued
system.cpu1.iq.FU_type_0::SimdMultAcc               0      0.00%     64.25% # Type of FU issued
system.cpu1.iq.FU_type_0::SimdShift                 0      0.00%     64.25% # Type of FU issued
system.cpu1.iq.FU_type_0::SimdShiftAcc              0      0.00%     64.25% # Type of FU issued
system.cpu1.iq.FU_type_0::SimdDiv                   0      0.00%     64.25% # Type of FU issued
system.cpu1.iq.FU_type_0::SimdSqrt                  0      0.00%     64.25% # Type of FU issued
system.cpu1.iq.FU_type_0::SimdFloatAdd              0      0.00%     64.25% # Type of FU issued
system.cpu1.iq.FU_type_0::SimdFloatAlu              0      0.00%     64.25% # Type of FU issued
system.cpu1.iq.FU_type_0::SimdFloatCmp              0      0.00%     64.25% # Type of FU issued
system.cpu1.iq.FU_type_0::SimdFloatCvt              0      0.00%     64.25% # Type of FU issued
system.cpu1.iq.FU_type_0::SimdFloatDiv              0      0.00%     64.25% # Type of FU issued
system.cpu1.iq.FU_type_0::SimdFloatMisc             0      0.00%     64.25% # Type of FU issued
system.cpu1.iq.FU_type_0::SimdFloatMult             0      0.00%     64.25% # Type of FU issued
system.cpu1.iq.FU_type_0::SimdFloatMultAcc            0      0.00%     64.25% # Type of FU issued
system.cpu1.iq.FU_type_0::SimdFloatSqrt             0      0.00%     64.25% # Type of FU issued
system.cpu1.iq.FU_type_0::SimdReduceAdd             0      0.00%     64.25% # Type of FU issued
system.cpu1.iq.FU_type_0::SimdReduceAlu             0      0.00%     64.25% # Type of FU issued
system.cpu1.iq.FU_type_0::SimdReduceCmp             0      0.00%     64.25% # Type of FU issued
system.cpu1.iq.FU_type_0::SimdFloatReduceAdd            0      0.00%     64.25% # Type of FU issued
system.cpu1.iq.FU_type_0::SimdFloatReduceCmp            0      0.00%     64.25% # Type of FU issued
system.cpu1.iq.FU_type_0::SimdAes                   0      0.00%     64.25% # Type of FU issued
system.cpu1.iq.FU_type_0::SimdAesMix                0      0.00%     64.25% # Type of FU issued
system.cpu1.iq.FU_type_0::SimdSha1Hash              0      0.00%     64.25% # Type of FU issued
system.cpu1.iq.FU_type_0::SimdSha1Hash2             0      0.00%     64.25% # Type of FU issued
system.cpu1.iq.FU_type_0::SimdSha256Hash            0      0.00%     64.25% # Type of FU issued
system.cpu1.iq.FU_type_0::SimdSha256Hash2            0      0.00%     64.25% # Type of FU issued
system.cpu1.iq.FU_type_0::SimdShaSigma2             0      0.00%     64.25% # Type of FU issued
system.cpu1.iq.FU_type_0::SimdShaSigma3             0      0.00%     64.25% # Type of FU issued
system.cpu1.iq.FU_type_0::SimdPredAlu               0      0.00%     64.25% # Type of FU issued
system.cpu1.iq.FU_type_0::MemRead            46498569     26.37%     90.62% # Type of FU issued
system.cpu1.iq.FU_type_0::MemWrite           16531667      9.38%    100.00% # Type of FU issued
system.cpu1.iq.FU_type_0::FloatMemRead              0      0.00%    100.00% # Type of FU issued
system.cpu1.iq.FU_type_0::FloatMemWrite            12      0.00%    100.00% # Type of FU issued
system.cpu1.iq.FU_type_0::IprAccess                 0      0.00%    100.00% # Type of FU issued
system.cpu1.iq.FU_type_0::InstPrefetch              0      0.00%    100.00% # Type of FU issued
system.cpu1.iq.FU_type_0::total             176313003                       # Type of FU issued
system.cpu1.iq.fp_alu_accesses                     16                       # Number of floating point alu accesses
system.cpu1.iq.fp_inst_queue_reads                 28                       # Number of floating instruction queue reads
system.cpu1.iq.fp_inst_queue_wakeup_accesses           12                       # Number of floating instruction queue wakeup accesses
system.cpu1.iq.fp_inst_queue_writes                12                       # Number of floating instruction queue writes
system.cpu1.iq.fu_busy_cnt                    4605537                       # FU busy when requested
system.cpu1.iq.fu_busy_rate                  0.026121                       # FU busy rate (busy events/executed inst)
system.cpu1.iq.fu_full::No_OpClass                  0      0.00%      0.00% # attempts to use FU when none available
system.cpu1.iq.fu_full::IntAlu                 870073     18.89%     18.89% # attempts to use FU when none available
system.cpu1.iq.fu_full::IntMult                  6788      0.15%     19.04% # attempts to use FU when none available
system.cpu1.iq.fu_full::IntDiv                 568899     12.35%     31.39% # attempts to use FU when none available
system.cpu1.iq.fu_full::FloatAdd                    0      0.00%     31.39% # attempts to use FU when none available
system.cpu1.iq.fu_full::FloatCmp                    0      0.00%     31.39% # attempts to use FU when none available
system.cpu1.iq.fu_full::FloatCvt                    0      0.00%     31.39% # attempts to use FU when none available
system.cpu1.iq.fu_full::FloatMult                   0      0.00%     31.39% # attempts to use FU when none available
system.cpu1.iq.fu_full::FloatMultAcc                0      0.00%     31.39% # attempts to use FU when none available
system.cpu1.iq.fu_full::FloatDiv                    0      0.00%     31.39% # attempts to use FU when none available
system.cpu1.iq.fu_full::FloatMisc                   0      0.00%     31.39% # attempts to use FU when none available
system.cpu1.iq.fu_full::FloatSqrt                   0      0.00%     31.39% # attempts to use FU when none available
system.cpu1.iq.fu_full::SimdAdd                     0      0.00%     31.39% # attempts to use FU when none available
system.cpu1.iq.fu_full::SimdAddAcc                  0      0.00%     31.39% # attempts to use FU when none available
system.cpu1.iq.fu_full::SimdAlu                     0      0.00%     31.39% # attempts to use FU when none available
system.cpu1.iq.fu_full::SimdCmp                     0      0.00%     31.39% # attempts to use FU when none available
system.cpu1.iq.fu_full::SimdCvt                     0      0.00%     31.39% # attempts to use FU when none available
system.cpu1.iq.fu_full::SimdMisc                    0      0.00%     31.39% # attempts to use FU when none available
system.cpu1.iq.fu_full::SimdMult                    0      0.00%     31.39% # attempts to use FU when none available
system.cpu1.iq.fu_full::SimdMultAcc                 0      0.00%     31.39% # attempts to use FU when none available
system.cpu1.iq.fu_full::SimdShift                   0      0.00%     31.39% # attempts to use FU when none available
system.cpu1.iq.fu_full::SimdShiftAcc                0      0.00%     31.39% # attempts to use FU when none available
system.cpu1.iq.fu_full::SimdDiv                     0      0.00%     31.39% # attempts to use FU when none available
system.cpu1.iq.fu_full::SimdSqrt                    0      0.00%     31.39% # attempts to use FU when none available
system.cpu1.iq.fu_full::SimdFloatAdd                0      0.00%     31.39% # attempts to use FU when none available
system.cpu1.iq.fu_full::SimdFloatAlu                0      0.00%     31.39% # attempts to use FU when none available
system.cpu1.iq.fu_full::SimdFloatCmp                0      0.00%     31.39% # attempts to use FU when none available
system.cpu1.iq.fu_full::SimdFloatCvt                0      0.00%     31.39% # attempts to use FU when none available
system.cpu1.iq.fu_full::SimdFloatDiv                0      0.00%     31.39% # attempts to use FU when none available
system.cpu1.iq.fu_full::SimdFloatMisc               0      0.00%     31.39% # attempts to use FU when none available
system.cpu1.iq.fu_full::SimdFloatMult               0      0.00%     31.39% # attempts to use FU when none available
system.cpu1.iq.fu_full::SimdFloatMultAcc            0      0.00%     31.39% # attempts to use FU when none available
system.cpu1.iq.fu_full::SimdFloatSqrt               0      0.00%     31.39% # attempts to use FU when none available
system.cpu1.iq.fu_full::SimdReduceAdd               0      0.00%     31.39% # attempts to use FU when none available
system.cpu1.iq.fu_full::SimdReduceAlu               0      0.00%     31.39% # attempts to use FU when none available
system.cpu1.iq.fu_full::SimdReduceCmp               0      0.00%     31.39% # attempts to use FU when none available
system.cpu1.iq.fu_full::SimdFloatReduceAdd            0      0.00%     31.39% # attempts to use FU when none available
system.cpu1.iq.fu_full::SimdFloatReduceCmp            0      0.00%     31.39% # attempts to use FU when none available
system.cpu1.iq.fu_full::SimdAes                     0      0.00%     31.39% # attempts to use FU when none available
system.cpu1.iq.fu_full::SimdAesMix                  0      0.00%     31.39% # attempts to use FU when none available
system.cpu1.iq.fu_full::SimdSha1Hash                0      0.00%     31.39% # attempts to use FU when none available
system.cpu1.iq.fu_full::SimdSha1Hash2               0      0.00%     31.39% # attempts to use FU when none available
system.cpu1.iq.fu_full::SimdSha256Hash              0      0.00%     31.39% # attempts to use FU when none available
system.cpu1.iq.fu_full::SimdSha256Hash2             0      0.00%     31.39% # attempts to use FU when none available
system.cpu1.iq.fu_full::SimdShaSigma2               0      0.00%     31.39% # attempts to use FU when none available
system.cpu1.iq.fu_full::SimdShaSigma3               0      0.00%     31.39% # attempts to use FU when none available
system.cpu1.iq.fu_full::SimdPredAlu                 0      0.00%     31.39% # attempts to use FU when none available
system.cpu1.iq.fu_full::MemRead               2489679     54.06%     85.45% # attempts to use FU when none available
system.cpu1.iq.fu_full::MemWrite               670094     14.55%    100.00% # attempts to use FU when none available
system.cpu1.iq.fu_full::FloatMemRead                0      0.00%    100.00% # attempts to use FU when none available
[...]
system.cpu1.dcache.WriteReq_hits::.cpu1.data      3396622                       # number of WriteReq hits
system.cpu1.dcache.WriteReq_hits::total       3396622                       # number of WriteReq hits
system.cpu1.dcache.WriteReq_misses::.cpu1.data      2518386                       # number of WriteReq misses
system.cpu1.dcache.WriteReq_misses::total      2518386                       # number of WriteReq misses
system.cpu1.dcache.WriteReq_miss_latency::.cpu1.data 203208397935                       # number of WriteReq miss cycles
system.cpu1.dcache.WriteReq_miss_latency::total 203208397935                       # number of WriteReq miss cycles
system.cpu1.dcache.WriteReq_accesses::.cpu1.data      5915008                       # number of WriteReq accesses(hits+misses)
system.cpu1.dcache.WriteReq_accesses::total      5915008                       # number of WriteReq accesses(hits+misses)
system.cpu1.dcache.WriteReq_miss_rate::.cpu1.data     0.425762                       # miss rate for WriteReq accesses
system.cpu1.dcache.WriteReq_miss_rate::total     0.425762                       # miss rate for WriteReq accesses
system.cpu1.dcache.WriteReq_avg_miss_latency::.cpu1.data 80689.933130                       # average WriteReq miss latency
system.cpu1.dcache.WriteReq_avg_miss_latency::total 80689.933130                       # average WriteReq miss latency
system.cpu1.dcache.WriteReq_mshr_hits::.cpu1.data      2061432                       # number of WriteReq MSHR hits
system.cpu1.dcache.WriteReq_mshr_hits::total      2061432                       # number of WriteReq MSHR hits
system.cpu1.dcache.WriteReq_mshr_misses::.cpu1.data       456954                       # number of WriteReq MSHR misses
system.cpu1.dcache.WriteReq_mshr_misses::total       456954                       # number of WriteReq MSHR misses
system.cpu1.dcache.WriteReq_mshr_miss_latency::.cpu1.data  37375330608                       # number of WriteReq MSHR miss cycles
system.cpu1.dcache.WriteReq_mshr_miss_latency::total  37375330608                       # number of WriteReq MSHR miss cycles
system.cpu1.dcache.WriteReq_mshr_miss_rate::.cpu1.data     0.077253                       # mshr miss rate for WriteReq accesses
system.cpu1.dcache.WriteReq_mshr_miss_rate::total     0.077253                       # mshr miss rate for WriteReq accesses
system.cpu1.dcache.WriteReq_avg_mshr_miss_latency::.cpu1.data 81792.326160                       # average WriteReq mshr miss latency
system.cpu1.dcache.WriteReq_avg_mshr_miss_latency::total 81792.326160                       # average WriteReq mshr miss latency
system.cpu1.dcache.LoadLockedReq_hits::.cpu1.data        82351                       # number of LoadLockedReq hits
system.cpu1.dcache.LoadLockedReq_hits::total        82351                       # number of LoadLockedReq hits
system.cpu1.dcache.LoadLockedReq_misses::.cpu1.data        34756                       # number of LoadLockedReq misses
system.cpu1.dcache.LoadLockedReq_misses::total        34756                       # number of LoadLockedReq misses
system.cpu1.dcache.LoadLockedReq_miss_latency::.cpu1.data   1024370000                       # number of LoadLockedReq miss cycles
system.cpu1.dcache.LoadLockedReq_miss_latency::total   1024370000                       # number of LoadLockedReq miss cycles
system.cpu1.dcache.LoadLockedReq_accesses::.cpu1.data       117107                       # number of LoadLockedReq accesses(hits+misses)
system.cpu1.dcache.LoadLockedReq_accesses::total       117107                       # number of LoadLockedReq accesses(hits+misses)
system.cpu1.dcache.LoadLockedReq_miss_rate::.cpu1.data     0.296788                       # miss rate for LoadLockedReq accesses
system.cpu1.dcache.LoadLockedReq_miss_rate::total     0.296788                       # miss rate for LoadLockedReq accesses
system.cpu1.dcache.LoadLockedReq_avg_miss_latency::.cpu1.data 29473.184486                       # average LoadLockedReq miss latency
system.cpu1.dcache.LoadLockedReq_avg_miss_latency::total 29473.184486                       # average LoadLockedReq miss latency
system.cpu1.dcache.LoadLockedReq_mshr_hits::.cpu1.data        25631                       # number of LoadLockedReq MSHR hits
system.cpu1.dcache.LoadLockedReq_mshr_hits::total        25631                       # number of LoadLockedReq MSHR hits
system.cpu1.dcache.LoadLockedReq_mshr_misses::.cpu1.data         9125                       # number of LoadLockedReq MSHR misses
system.cpu1.dcache.LoadLockedReq_mshr_misses::total         9125                       # number of LoadLockedReq MSHR misses
system.cpu1.dcache.LoadLockedReq_mshr_miss_latency::.cpu1.data     82656000                       # number of LoadLockedReq MSHR miss cycles
system.cpu1.dcache.LoadLockedReq_mshr_miss_latency::total     82656000                       # number of LoadLockedReq MSHR miss cycles
system.cpu1.dcache.LoadLockedReq_mshr_miss_rate::.cpu1.data     0.077920                       # mshr miss rate for LoadLockedReq accesses
system.cpu1.dcache.LoadLockedReq_mshr_miss_rate::total     0.077920                       # mshr miss rate for LoadLockedReq accesses
system.cpu1.dcache.LoadLockedReq_avg_mshr_miss_latency::.cpu1.data  9058.191781                       # average LoadLockedReq mshr miss latency
system.cpu1.dcache.LoadLockedReq_avg_mshr_miss_latency::total  9058.191781                       # average LoadLockedReq mshr miss latency
system.cpu1.dcache.StoreCondReq_hits::.cpu1.data        62205                       # number of StoreCondReq hits
system.cpu1.dcache.StoreCondReq_hits::total        62205                       # number of StoreCondReq hits
system.cpu1.dcache.StoreCondReq_misses::.cpu1.data        32110                       # number of StoreCondReq misses
system.cpu1.dcache.StoreCondReq_misses::total        32110                       # number of StoreCondReq misses
system.cpu1.dcache.StoreCondReq_miss_latency::.cpu1.data    244914500                       # number of StoreCondReq miss cycles
system.cpu1.dcache.StoreCondReq_miss_latency::total    244914500                       # number of StoreCondReq miss cycles
system.cpu1.dcache.StoreCondReq_accesses::.cpu1.data        94315                       # number of StoreCondReq accesses(hits+misses)
system.cpu1.dcache.StoreCondReq_accesses::total        94315                       # number of StoreCondReq accesses(hits+misses)
system.cpu1.dcache.StoreCondReq_miss_rate::.cpu1.data     0.340455                       # miss rate for StoreCondReq accesses
system.cpu1.dcache.StoreCondReq_miss_rate::total     0.340455                       # miss rate for StoreCondReq accesses
system.cpu1.dcache.StoreCondReq_avg_miss_latency::.cpu1.data  7627.359078                       # average StoreCondReq miss latency
system.cpu1.dcache.StoreCondReq_avg_miss_latency::total  7627.359078                       # average StoreCondReq miss latency
system.cpu1.dcache.StoreCondReq_mshr_misses::.cpu1.data        32107                       # number of StoreCondReq MSHR misses
system.cpu1.dcache.StoreCondReq_mshr_misses::total        32107                       # number of StoreCondReq MSHR misses
system.cpu1.dcache.StoreCondReq_mshr_miss_latency::.cpu1.data    214866500                       # number of StoreCondReq MSHR miss cycles
system.cpu1.dcache.StoreCondReq_mshr_miss_latency::total    214866500                       # number of StoreCondReq MSHR miss cycles
system.cpu1.dcache.StoreCondReq_mshr_miss_rate::.cpu1.data     0.340423                       # mshr miss rate for StoreCondReq accesses
system.cpu1.dcache.StoreCondReq_mshr_miss_rate::total     0.340423                       # mshr miss rate for StoreCondReq accesses
system.cpu1.dcache.StoreCondReq_avg_mshr_miss_latency::.cpu1.data  6692.201078                       # average StoreCondReq mshr miss latency
system.cpu1.dcache.StoreCondReq_avg_mshr_miss_latency::total  6692.201078                       # average StoreCondReq mshr miss latency
system.cpu1.dcache.StoreCondFailReq_miss_latency::.cpu1.data     32157000                       # number of StoreCondFailReq miss cycles
system.cpu1.dcache.StoreCondFailReq_miss_latency::total     32157000                       # number of StoreCondFailReq miss cycles
system.cpu1.dcache.StoreCondFailReq_avg_miss_latency::.cpu1.data          inf                       # average StoreCondFailReq miss latency
system.cpu1.dcache.StoreCondFailReq_avg_miss_latency::total          inf                       # average StoreCondFailReq miss latency
system.cpu1.dcache.StoreCondFailReq_mshr_miss_latency::.cpu1.data     30098000                       # number of StoreCondFailReq MSHR miss cycles
system.cpu1.dcache.StoreCondFailReq_mshr_miss_latency::total     30098000                       # number of StoreCondFailReq MSHR miss cycles
system.cpu1.dcache.StoreCondFailReq_avg_mshr_miss_latency::.cpu1.data          inf                       # average StoreCondFailReq mshr miss latency
system.cpu1.dcache.StoreCondFailReq_avg_mshr_miss_latency::total          inf                       # average StoreCondFailReq mshr miss latency
system.cpu1.dcache.SwapReq_hits::.cpu1.data        55501                       # number of SwapReq hits
system.cpu1.dcache.SwapReq_hits::total          55501                       # number of SwapReq hits
system.cpu1.dcache.SwapReq_misses::.cpu1.data        27368                       # number of SwapReq misses
system.cpu1.dcache.SwapReq_misses::total        27368                       # number of SwapReq misses
system.cpu1.dcache.SwapReq_miss_latency::.cpu1.data    154337000                       # number of SwapReq miss cycles
system.cpu1.dcache.SwapReq_miss_latency::total    154337000                       # number of SwapReq miss cycles
system.cpu1.dcache.SwapReq_accesses::.cpu1.data        82869                       # number of SwapReq accesses(hits+misses)
system.cpu1.dcache.SwapReq_accesses::total        82869                       # number of SwapReq accesses(hits+misses)
system.cpu1.dcache.SwapReq_miss_rate::.cpu1.data     0.330256                       # miss rate for SwapReq accesses
system.cpu1.dcache.SwapReq_miss_rate::total     0.330256                       # miss rate for SwapReq accesses
system.cpu1.dcache.SwapReq_avg_miss_latency::.cpu1.data  5639.323297                       # average SwapReq miss latency
system.cpu1.dcache.SwapReq_avg_miss_latency::total  5639.323297                       # average SwapReq miss latency
system.cpu1.dcache.SwapReq_mshr_hits::.cpu1.data           12                       # number of SwapReq MSHR hits
system.cpu1.dcache.SwapReq_mshr_hits::total           12                       # number of SwapReq MSHR hits
system.cpu1.dcache.SwapReq_mshr_misses::.cpu1.data        27356                       # number of SwapReq MSHR misses
system.cpu1.dcache.SwapReq_mshr_misses::total        27356                       # number of SwapReq MSHR misses
system.cpu1.dcache.SwapReq_mshr_miss_latency::.cpu1.data    126720000                       # number of SwapReq MSHR miss cycles
system.cpu1.dcache.SwapReq_mshr_miss_latency::total    126720000                       # number of SwapReq MSHR miss cycles
system.cpu1.dcache.SwapReq_mshr_miss_rate::.cpu1.data     0.330111                       # mshr miss rate for SwapReq accesses
system.cpu1.dcache.SwapReq_mshr_miss_rate::total     0.330111                       # mshr miss rate for SwapReq accesses
system.cpu1.dcache.SwapReq_avg_mshr_miss_latency::.cpu1.data  4632.256178                       # average SwapReq mshr miss latency
system.cpu1.dcache.SwapReq_avg_mshr_miss_latency::total  4632.256178                       # average SwapReq mshr miss latency
system.cpu1.dcache.tags.pwrStateResidencyTicks::UNDEFINED 224568628000                       # Cumulative time (in ticks) in various power states
system.cpu1.dcache.tags.tagsinuse           31.465421                       # Cycle average of tags in use
system.cpu1.dcache.tags.total_refs           10130582                       # Total number of references to valid blocks.
system.cpu1.dcache.tags.sampled_refs          1170584                       # Sample count of references to valid blocks.
system.cpu1.dcache.tags.avg_refs             8.654297                       # Average number of references to valid blocks.
system.cpu1.dcache.tags.warmup_cycle                0                       # Cycle when the warmup percentage was hit.
system.cpu1.dcache.tags.occ_blocks::.cpu1.data    31.465421                       # Average occupied blocks per requestor
system.cpu1.dcache.tags.occ_percent::.cpu1.data     0.983294                       # Average percentage of cache occupancy
system.cpu1.dcache.tags.occ_percent::total     0.983294                       # Average percentage of cache occupancy
system.cpu1.dcache.tags.occ_task_id_blocks::1024           24                       # Occupied blocks per task id
system.cpu1.dcache.tags.age_task_id_blocks_1024::1           22                       # Occupied blocks per task id
system.cpu1.dcache.tags.age_task_id_blocks_1024::2            2                       # Occupied blocks per task id
system.cpu1.dcache.tags.occ_task_id_percent::1024     0.750000                       # Percentage of cache occupancy per task id
system.cpu1.dcache.tags.tag_accesses         26876079                       # Number of tag accesses
system.cpu1.dcache.tags.data_accesses        26876079                       # Number of data accesses
system.cpu_clk_domain.clock                       500                       # Clock period in ticks
system.tol2bus.pwrStateResidencyTicks::UNDEFINED 224568628000                       # Cumulative time (in ticks) in various power states
system.tol2bus.trans_dist::ReadResp           5238442                       # Transaction distribution
system.tol2bus.trans_dist::WritebackDirty      2360833                       # Transaction distribution
system.tol2bus.trans_dist::WritebackClean      4585821                       # Transaction distribution
system.tol2bus.trans_dist::CleanEvict         6622451                       # Transaction distribution
system.tol2bus.trans_dist::UpgradeReq          104876                       # Transaction distribution
system.tol2bus.trans_dist::SCUpgradeReq         58294                       # Transaction distribution
system.tol2bus.trans_dist::UpgradeResp         163170                       # Transaction distribution
system.tol2bus.trans_dist::SCUpgradeFailReq         2300                       # Transaction distribution
system.tol2bus.trans_dist::UpgradeFailResp         2300                       # Transaction distribution
system.tol2bus.trans_dist::ReadExReq           846969                       # Transaction distribution
system.tol2bus.trans_dist::ReadExResp          846972                       # Transaction distribution
system.tol2bus.trans_dist::ReadCleanReq       3441812                       # Transaction distribution
system.tol2bus.trans_dist::ReadSharedReq      1796631                       # Transaction distribution
system.tol2bus.trans_dist::InvalidateReq         3706                       # Transaction distribution
system.tol2bus.trans_dist::InvalidateResp         3706                       # Transaction distribution
system.tol2bus.pkt_count_system.cpu0.icache.mem_side::system.l2.cpu_side      3883851                       # Packet count per connected master and slave (bytes)
system.tol2bus.pkt_count_system.cpu0.dcache.mem_side::system.l2.cpu_side      4347135                       # Packet count per connected master and slave (bytes)
system.tol2bus.pkt_count_system.cpu1.icache.mem_side::system.l2.cpu_side      6441388                       # Packet count per connected master and slave (bytes)
system.tol2bus.pkt_count_system.cpu1.dcache.mem_side::system.l2.cpu_side      3377833                       # Packet count per connected master and slave (bytes)
system.tol2bus.pkt_count::total              18050207                       # Packet count per connected master and slave (bytes)
system.tol2bus.pkt_size_system.cpu0.icache.mem_side::system.l2.cpu_side    165707776                       # Cumulative packet size per connected master and slave (bytes)
system.tol2bus.pkt_size_system.cpu0.dcache.mem_side::system.l2.cpu_side    176050944                       # Cumulative packet size per connected master and slave (bytes)
system.tol2bus.pkt_size_system.cpu1.icache.mem_side::system.l2.cpu_side    274831552                       # Cumulative packet size per connected master and slave (bytes)
system.tol2bus.pkt_size_system.cpu1.dcache.mem_side::system.l2.cpu_side    135589632                       # Cumulative packet size per connected master and slave (bytes)
system.tol2bus.pkt_size::total              752179904                       # Cumulative packet size per connected master and slave (bytes)
system.tol2bus.snoops                         8028076                       # Total snoops (count)
system.tol2bus.snoopTraffic                  82019648                       # Total snoop traffic (bytes)
system.tol2bus.snoop_fanout::samples         13931650                       # Request fanout histogram
system.tol2bus.snoop_fanout::mean            0.353726                       # Request fanout histogram
system.tol2bus.snoop_fanout::stdev           0.526059                       # Request fanout histogram
system.tol2bus.snoop_fanout::underflows             0      0.00%      0.00% # Request fanout histogram
system.tol2bus.snoop_fanout::0                9338965     67.03%     67.03% # Request fanout histogram
system.tol2bus.snoop_fanout::1                4257389     30.56%     97.59% # Request fanout histogram
system.tol2bus.snoop_fanout::2                 335296      2.41%    100.00% # Request fanout histogram
system.tol2bus.snoop_fanout::3                      0      0.00%    100.00% # Request fanout histogram
system.tol2bus.snoop_fanout::4                      0      0.00%    100.00% # Request fanout histogram
system.tol2bus.snoop_fanout::5                      0      0.00%    100.00% # Request fanout histogram
system.tol2bus.snoop_fanout::6                      0      0.00%    100.00% # Request fanout histogram
system.tol2bus.snoop_fanout::7                      0      0.00%    100.00% # Request fanout histogram
system.tol2bus.snoop_fanout::8                      0      0.00%    100.00% # Request fanout histogram
system.tol2bus.snoop_fanout::overflows              0      0.00%    100.00% # Request fanout histogram
system.tol2bus.snoop_fanout::min_value              0                       # Request fanout histogram
system.tol2bus.snoop_fanout::max_value              2                       # Request fanout histogram
system.tol2bus.snoop_fanout::total           13931650                       # Request fanout histogram
system.tol2bus.reqLayer0.occupancy        11965805105                       # Layer occupancy (ticks)
system.tol2bus.reqLayer0.utilization              5.3                       # Layer utilization (%)
system.tol2bus.respLayer1.occupancy        2260536377                       # Layer occupancy (ticks)
system.tol2bus.respLayer1.utilization             1.0                       # Layer utilization (%)
system.tol2bus.respLayer0.occupancy        1944508972                       # Layer occupancy (ticks)
system.tol2bus.respLayer0.utilization             0.9                       # Layer utilization (%)
system.tol2bus.respLayer3.occupancy        1796186719                       # Layer occupancy (ticks)
system.tol2bus.respLayer3.utilization             0.8                       # Layer utilization (%)
system.tol2bus.respLayer2.occupancy        3229033330                       # Layer occupancy (ticks)
system.tol2bus.respLayer2.utilization             1.4                       # Layer utilization (%)

---------- End Simulation Statistics   ----------
