
---------- Begin Simulation Statistics ----------
final_tick                               1433439915500                       # Number of ticks from beginning of simulation (restored from checkpoints and never reset)
host_inst_rate                                  61356                       # Simulator instruction rate (inst/s)
host_mem_usage                                 702968                       # Number of bytes of host memory used
host_op_rate                                    61520                       # Simulator op (including micro ops) rate (op/s)
host_seconds                                 25526.93                       # Real time elapsed on the host
host_tick_rate                               56154025                       # Simulator tick rate (ticks/s)
sim_freq                                 1000000000000                       # Frequency of simulated ticks
sim_insts                                  1566222928                       # Number of instructions simulated
sim_ops                                    1570426697                       # Number of ops (including micro ops) simulated
sim_seconds                                  1.433440                       # Number of seconds simulated
sim_ticks                                1433439915500                       # Number of ticks simulated
system.cpu0.branchPred.BTBCorrect                   0                       # Number of correct BTB predictions (this stat may not work properly.
system.cpu0.branchPred.BTBHitPct            85.237082                       # BTB Hit Percentage
system.cpu0.branchPred.BTBHits              190946329                       # Number of BTB hits
system.cpu0.branchPred.BTBLookups           224017910                       # Number of BTB lookups
system.cpu0.branchPred.RASInCorrect                 0                       # Number of incorrect RAS predictions.
system.cpu0.branchPred.condIncorrect         12859538                       # Number of conditional branches incorrect
system.cpu0.branchPred.condPredicted        291917878                       # Number of conditional branches predicted
system.cpu0.branchPred.indirectHits          30273962                       # Number of indirect target hits.
system.cpu0.branchPred.indirectLookups       30937469                       # Number of indirect predictor lookups.
system.cpu0.branchPred.indirectMisses          663507                       # Number of indirect misses.
system.cpu0.branchPred.lookups              378727742                       # Number of BP lookups
system.cpu0.branchPred.usedRAS                      0                       # Number of times the RAS was used to get a target.
system.cpu0.branchPredindirectMispredicted      2276356                       # Number of mispredicted indirect branches.
system.cpu0.commit.amos                       2100279                       # Number of atomic instructions committed
system.cpu0.commit.branchMispredicts          8305278                       # The number of times a branch was mispredicted
system.cpu0.commit.branches                 343026575                       # Number of branches committed
system.cpu0.commit.bw_lim_events             51549337                       # number cycles where commit BW limit reached
system.cpu0.commit.commitNonSpecStalls        6309776                       # The number of times commit has been forced to stall to communicate backwards
system.cpu0.commit.commitSquashedInsts      161991882                       # The number of squashed insts skipped by commit
system.cpu0.commit.committedInsts          1408187651                       # Number of instructions committed
system.cpu0.commit.committedOps            1410291234                       # Number of ops (including micro ops) committed
system.cpu0.commit.committed_per_cycle::samples   2468486107                       # Number of insts commited each cycle
system.cpu0.commit.committed_per_cycle::mean     0.571318                       # Number of insts commited each cycle
system.cpu0.commit.committed_per_cycle::stdev     1.418366                       # Number of insts commited each cycle
system.cpu0.commit.committed_per_cycle::underflows            0      0.00%      0.00% # Number of insts commited each cycle
system.cpu0.commit.committed_per_cycle::0   1836686223     74.41%     74.41% # Number of insts commited each cycle
system.cpu0.commit.committed_per_cycle::1    364191210     14.75%     89.16% # Number of insts commited each cycle
system.cpu0.commit.committed_per_cycle::2     90556475      3.67%     92.83% # Number of insts commited each cycle
system.cpu0.commit.committed_per_cycle::3     77237945      3.13%     95.96% # Number of insts commited each cycle
system.cpu0.commit.committed_per_cycle::4     31672534      1.28%     97.24% # Number of insts commited each cycle
system.cpu0.commit.committed_per_cycle::5      8342450      0.34%     97.58% # Number of insts commited each cycle
system.cpu0.commit.committed_per_cycle::6      5273374      0.21%     97.79% # Number of insts commited each cycle
system.cpu0.commit.committed_per_cycle::7      2976559      0.12%     97.91% # Number of insts commited each cycle
system.cpu0.commit.committed_per_cycle::8     51549337      2.09%    100.00% # Number of insts commited each cycle
system.cpu0.commit.committed_per_cycle::overflows            0      0.00%    100.00% # Number of insts commited each cycle
system.cpu0.commit.committed_per_cycle::min_value            0                       # Number of insts commited each cycle
system.cpu0.commit.committed_per_cycle::max_value            8                       # Number of insts commited each cycle
system.cpu0.commit.committed_per_cycle::total   2468486107                       # Number of insts commited each cycle
system.cpu0.commit.fp_insts                        50                       # Number of committed floating point instructions.
system.cpu0.commit.function_calls            29098554                       # Number of function calls committed.
system.cpu0.commit.int_insts               1363649441                       # Number of committed integer instructions.
system.cpu0.commit.loads                    423705702                       # Number of loads committed
system.cpu0.commit.membars                    4203751                       # Number of memory barriers committed
system.cpu0.commit.op_class_0::No_OpClass      4203757      0.30%      0.30% # Class of committed instruction
system.cpu0.commit.op_class_0::IntAlu       798541535     56.62%     56.92% # Class of committed instruction
system.cpu0.commit.op_class_0::IntMult       12622000      0.89%     57.82% # Class of committed instruction
system.cpu0.commit.op_class_0::IntDiv         3672708      0.26%     58.08% # Class of committed instruction
system.cpu0.commit.op_class_0::FloatAdd             0      0.00%     58.08% # Class of committed instruction
system.cpu0.commit.op_class_0::FloatCmp             4      0.00%     58.08% # Class of committed instruction
system.cpu0.commit.op_class_0::FloatCvt            12      0.00%     58.08% # Class of committed instruction
system.cpu0.commit.op_class_0::FloatMult            0      0.00%     58.08% # Class of committed instruction
system.cpu0.commit.op_class_0::FloatMultAcc            0      0.00%     58.08% # Class of committed instruction
system.cpu0.commit.op_class_0::FloatDiv             2      0.00%     58.08% # Class of committed instruction
system.cpu0.commit.op_class_0::FloatMisc            4      0.00%     58.08% # Class of committed instruction
system.cpu0.commit.op_class_0::FloatSqrt            0      0.00%     58.08% # Class of committed instruction
system.cpu0.commit.op_class_0::SimdAdd              0      0.00%     58.08% # Class of committed instruction
system.cpu0.commit.op_class_0::SimdAddAcc            0      0.00%     58.08% # Class of committed instruction
system.cpu0.commit.op_class_0::SimdAlu              0      0.00%     58.08% # Class of committed instruction
system.cpu0.commit.op_class_0::SimdCmp              0      0.00%     58.08% # Class of committed instruction
system.cpu0.commit.op_class_0::SimdCvt              0      0.00%     58.08% # Class of committed instruction
system.cpu0.commit.op_class_0::SimdMisc             0      0.00%     58.08% # Class of committed instruction
system.cpu0.commit.op_class_0::SimdMult             0      0.00%     58.08% # Class of committed instruction
system.cpu0.commit.op_class_0::SimdMultAcc            0      0.00%     58.08% # Class of committed instruction
system.cpu0.commit.op_class_0::SimdShift            0      0.00%     58.08% # Class of committed instruction
system.cpu0.commit.op_class_0::SimdShiftAcc            0      0.00%     58.08% # Class of committed instruction
system.cpu0.commit.op_class_0::SimdDiv              0      0.00%     58.08% # Class of committed instruction
system.cpu0.commit.op_class_0::SimdSqrt             0      0.00%     58.08% # Class of committed instruction
system.cpu0.commit.op_class_0::SimdFloatAdd            0      0.00%     58.08% # Class of committed instruction
system.cpu0.commit.op_class_0::SimdFloatAlu            0      0.00%     58.08% # Class of committed instruction
system.cpu0.commit.op_class_0::SimdFloatCmp            0      0.00%     58.08% # Class of committed instruction
system.cpu0.commit.op_class_0::SimdFloatCvt            0      0.00%     58.08% # Class of committed instruction
system.cpu0.commit.op_class_0::SimdFloatDiv            0      0.00%     58.08% # Class of committed instruction
system.cpu0.commit.op_class_0::SimdFloatMisc            0      0.00%     58.08% # Class of committed instruction
system.cpu0.commit.op_class_0::SimdFloatMult            0      0.00%     58.08% # Class of committed instruction
system.cpu0.commit.op_class_0::SimdFloatMultAcc            0      0.00%     58.08% # Class of committed instruction
system.cpu0.commit.op_class_0::SimdFloatSqrt            0      0.00%     58.08% # Class of committed instruction
system.cpu0.commit.op_class_0::SimdReduceAdd            0      0.00%     58.08% # Class of committed instruction
system.cpu0.commit.op_class_0::SimdReduceAlu            0      0.00%     58.08% # Class of committed instruction
system.cpu0.commit.op_class_0::SimdReduceCmp            0      0.00%     58.08% # Class of committed instruction
system.cpu0.commit.op_class_0::SimdFloatReduceAdd            0      0.00%     58.08% # Class of committed instruction
system.cpu0.commit.op_class_0::SimdFloatReduceCmp            0      0.00%     58.08% # Class of committed instruction
system.cpu0.commit.op_class_0::SimdAes              0      0.00%     58.08% # Class of committed instruction
system.cpu0.commit.op_class_0::SimdAesMix            0      0.00%     58.08% # Class of committed instruction
system.cpu0.commit.op_class_0::SimdSha1Hash            0      0.00%     58.08% # Class of committed instruction
system.cpu0.commit.op_class_0::SimdSha1Hash2            0      0.00%     58.08% # Class of committed instruction
system.cpu0.commit.op_class_0::SimdSha256Hash            0      0.00%     58.08% # Class of committed instruction
system.cpu0.commit.op_class_0::SimdSha256Hash2            0      0.00%     58.08% # Class of committed instruction
system.cpu0.commit.op_class_0::SimdShaSigma2            0      0.00%     58.08% # Class of committed instruction
system.cpu0.commit.op_class_0::SimdShaSigma3            0      0.00%     58.08% # Class of committed instruction
system.cpu0.commit.op_class_0::SimdPredAlu            0      0.00%     58.08% # Class of committed instruction
system.cpu0.commit.op_class_0::MemRead      425805973     30.19%     88.27% # Class of committed instruction
system.cpu0.commit.op_class_0::MemWrite     165445211     11.73%    100.00% # Class of committed instruction
system.cpu0.commit.op_class_0::FloatMemRead            8      0.00%    100.00% # Class of committed instruction
system.cpu0.commit.op_class_0::FloatMemWrite           20      0.00%    100.00% # Class of committed instruction
system.cpu0.commit.op_class_0::IprAccess            0      0.00%    100.00% # Class of committed instruction
system.cpu0.commit.op_class_0::InstPrefetch            0      0.00%    100.00% # Class of committed instruction
system.cpu0.commit.op_class_0::total       1410291234                       # Class of committed instruction
system.cpu0.commit.refs                     591251212                       # Number of memory references committed
system.cpu0.commit.swp_count                        0                       # Number of s/w prefetches committed
system.cpu0.commit.vec_insts                        0                       # Number of committed Vector instructions.
system.cpu0.committedInsts                 1408187651                       # Number of Instructions Simulated
system.cpu0.committedOps                   1410291234                       # Number of Ops (including micro ops) Simulated
system.cpu0.cpi                              2.029545                       # CPI: Cycles Per Instruction
system.cpu0.cpi_total                        2.029545                       # CPI: Total CPI of All Threads
system.cpu0.decode.BlockedCycles            527454650                       # Number of cycles decode is blocked
system.cpu0.decode.BranchMispred              4566595                       # Number of times decode detected a branch misprediction
system.cpu0.decode.BranchResolved           187668308                       # Number of times decode resolved a branch
system.cpu0.decode.DecodedInsts            1593168302                       # Number of instructions handled by decode
system.cpu0.decode.IdleCycles               839627528                       # Number of cycles decode is idle
system.cpu0.decode.RunCycles               1109766429                       # Number of cycles decode is running
system.cpu0.decode.SquashCycles               8321647                       # Number of cycles decode is squashing
system.cpu0.decode.SquashedInsts             15199955                       # Number of squashed instructions handled by decode
system.cpu0.decode.UnblockCycles              9237068                       # Number of cycles decode is unblocking
system.cpu0.dtb.accesses                            0                       # DTB accesses
system.cpu0.dtb.hits                                0                       # DTB hits
system.cpu0.dtb.misses                              0                       # DTB misses
system.cpu0.dtb.read_accesses                       0                       # DTB read accesses
system.cpu0.dtb.read_hits                           0                       # DTB read hits
system.cpu0.dtb.read_misses                         0                       # DTB read misses
system.cpu0.dtb.write_accesses                      0                       # DTB write accesses
system.cpu0.dtb.write_hits                          0                       # DTB write hits
system.cpu0.dtb.write_misses                        0                       # DTB write misses
system.cpu0.fetch.Branches                  378727742                       # Number of branches that fetch encountered
system.cpu0.fetch.CacheLines                281459768                       # Number of cache lines fetched
system.cpu0.fetch.Cycles                   1637634359                       # Number of cycles fetch has run and was not squashing or blocked
system.cpu0.fetch.IcacheSquashes              4523935                       # Number of outstanding Icache misses that were squashed
system.cpu0.fetch.IcacheWaitRetryStallCycles           78                       # Number of stall cycles due to full MSHR
system.cpu0.fetch.Insts                    1625252443                       # Number of instructions fetch has processed
system.cpu0.fetch.MiscStallCycles                 212                       # Number of cycles fetch has spent waiting on interrupts, or bad addresses, or out of MSHRs
system.cpu0.fetch.PendingTrapStallCycles          657                       # Number of stall cycles due to pending traps
system.cpu0.fetch.SquashCycles               25752020                       # Number of cycles fetch has spent squashing
system.cpu0.fetch.branchRate                 0.132516                       # Number of branch fetches per cycle
system.cpu0.fetch.icacheStallCycles         843896006                       # Number of cycles fetch is stalled on an Icache miss
system.cpu0.fetch.predictedBranches         221220291                       # Number of branches that fetch has predicted taken
system.cpu0.fetch.rate                       0.568672                       # Number of inst fetches per cycle
system.cpu0.fetch.rateDist::samples        2494407322                       # Number of instructions fetched each cycle (Total)
system.cpu0.fetch.rateDist::mean             0.652402                       # Number of instructions fetched each cycle (Total)
system.cpu0.fetch.rateDist::stdev            0.880533                       # Number of instructions fetched each cycle (Total)
system.cpu0.fetch.rateDist::underflows              0      0.00%      0.00% # Number of instructions fetched each cycle (Total)
system.cpu0.fetch.rateDist::0              1321798185     52.99%     52.99% # Number of instructions fetched each cycle (Total)
system.cpu0.fetch.rateDist::1               875643729     35.10%     88.09% # Number of instructions fetched each cycle (Total)
system.cpu0.fetch.rateDist::2               184193548      7.38%     95.48% # Number of instructions fetched each cycle (Total)
system.cpu0.fetch.rateDist::3                86846316      3.48%     98.96% # Number of instructions fetched each cycle (Total)
system.cpu0.fetch.rateDist::4                12276587      0.49%     99.45% # Number of instructions fetched each cycle (Total)
system.cpu0.fetch.rateDist::5                10322014      0.41%     99.87% # Number of instructions fetched each cycle (Total)
system.cpu0.fetch.rateDist::6                 1221496      0.05%     99.92% # Number of instructions fetched each cycle (Total)
system.cpu0.fetch.rateDist::7                 2102185      0.08%    100.00% # Number of instructions fetched each cycle (Total)
system.cpu0.fetch.rateDist::8                    3262      0.00%    100.00% # Number of instructions fetched each cycle (Total)
system.cpu0.fetch.rateDist::overflows               0      0.00%    100.00% # Number of instructions fetched each cycle (Total)
system.cpu0.fetch.rateDist::min_value               0                       # Number of instructions fetched each cycle (Total)
system.cpu0.fetch.rateDist::max_value               8                       # Number of instructions fetched each cycle (Total)
system.cpu0.fetch.rateDist::total          2494407322                       # Number of instructions fetched each cycle (Total)
system.cpu0.fp_regfile_reads                       44                       # number of floating regfile reads
system.cpu0.fp_regfile_writes                      23                       # number of floating regfile writes
system.cpu0.idleCycles                      363572852                       # Total number of cycles that the CPU has spent unscheduled due to idling
system.cpu0.iew.branchMispredicts             8430549                       # Number of branch mispredicts detected at execute
system.cpu0.iew.exec_branches               362058602                       # Number of branches executed
system.cpu0.iew.exec_nop                            0                       # number of nop insts executed
system.cpu0.iew.exec_rate                    0.542940                       # Inst execution rate
system.cpu0.iew.exec_refs                   678088483                       # number of memory reference insts executed
system.cpu0.iew.exec_stores                 200145179                       # Number of stores executed
system.cpu0.iew.exec_swp                            0                       # number of swp insts executed
system.cpu0.iew.iewBlockCycles              405820108                       # Number of cycles IEW is blocking
system.cpu0.iew.iewDispLoadInsts            476951098                       # Number of dispatched load instructions
system.cpu0.iew.iewDispNonSpecInsts           2106299                       # Number of dispatched non-speculative instructions
system.cpu0.iew.iewDispSquashedInsts          5143140                       # Number of squashed instructions skipped by dispatch
system.cpu0.iew.iewDispStoreInsts           205176566                       # Number of dispatched store instructions
system.cpu0.iew.iewDispatchedInsts         1572229652                       # Number of instructions dispatched to IQ
system.cpu0.iew.iewExecLoadInsts            477943304                       # Number of load instructions executed
system.cpu0.iew.iewExecSquashedInsts          8289808                       # Number of squashed instructions skipped in execute
system.cpu0.iew.iewExecutedInsts           1551712100                       # Number of executed instructions
system.cpu0.iew.iewIQFullEvents               1564819                       # Number of times the IQ has become full, causing a stall
system.cpu0.iew.iewIdleCycles                       0                       # Number of cycles IEW is idle
system.cpu0.iew.iewLSQFullEvents             17693216                       # Number of times the LSQ has become full, causing a stall
system.cpu0.iew.iewSquashCycles               8321647                       # Number of cycles IEW is squashing
system.cpu0.iew.iewUnblockCycles             22030467                       # Number of cycles IEW is unblocking
system.cpu0.iew.lsq.thread0.blockedLoads            0                       # Number of blocked loads due to partial load-store forwarding
system.cpu0.iew.lsq.thread0.cacheBlocked       980369                       # Number of times an access to memory failed due to the cache being blocked
system.cpu0.iew.lsq.thread0.forwLoads        36106667                       # Number of loads that had data forwarded from stores
system.cpu0.iew.lsq.thread0.ignoredResponses        30858                       # Number of memory responses ignored because the instruction is squashed
system.cpu0.iew.lsq.thread0.invAddrLoads            0                       # Number of loads ignored due to an invalid address
system.cpu0.iew.lsq.thread0.invAddrSwpfs            0                       # Number of software prefetches ignored due to an invalid address
system.cpu0.iew.lsq.thread0.memOrderViolation        17200                       # Number of memory ordering violations
system.cpu0.iew.lsq.thread0.rescheduledLoads      8458227                       # Number of loads that were rescheduled
system.cpu0.iew.lsq.thread0.squashedLoads     53245396                       # Number of loads squashed
system.cpu0.iew.lsq.thread0.squashedStores     37631055                       # Number of stores squashed
system.cpu0.iew.memOrderViolationEvents         17200                       # Number of memory order violations
system.cpu0.iew.predictedNotTakenIncorrect       541826                       # Number of branches that were predicted not taken incorrectly
system.cpu0.iew.predictedTakenIncorrect       7888723                       # Number of branches that were predicted taken incorrectly
system.cpu0.iew.wb_consumers                678355958                       # num instructions consuming a value
system.cpu0.iew.wb_count                   1537698492                       # cumulative count of insts written-back
system.cpu0.iew.wb_fanout                    0.849697                       # average fanout of values written-back
system.cpu0.iew.wb_producers                576396734                       # num instructions producing a value
system.cpu0.iew.wb_rate                      0.538037                       # insts written-back per cycle
system.cpu0.iew.wb_sent                    1537819538                       # cumulative count of insts sent to commit
system.cpu0.int_regfile_reads              1916136053                       # number of integer regfile reads
system.cpu0.int_regfile_writes              989825582                       # number of integer regfile writes
system.cpu0.ipc                              0.492721                       # IPC: Instructions Per Cycle
system.cpu0.ipc_total                        0.492721                       # IPC: Total IPC of All Threads
system.cpu0.iq.FU_type_0::No_OpClass          4205727      0.27%      0.27% # Type of FU issued
system.cpu0.iq.FU_type_0::IntAlu            860029717     55.13%     55.40% # Type of FU issued
system.cpu0.iq.FU_type_0::IntMult            12624791      0.81%     56.21% # Type of FU issued
system.cpu0.iq.FU_type_0::IntDiv              3673619      0.24%     56.44% # Type of FU issued
system.cpu0.iq.FU_type_0::FloatAdd                  0      0.00%     56.44% # Type of FU issued
system.cpu0.iq.FU_type_0::FloatCmp                  4      0.00%     56.44% # Type of FU issued
system.cpu0.iq.FU_type_0::FloatCvt                 12      0.00%     56.44% # Type of FU issued
system.cpu0.iq.FU_type_0::FloatMult                 0      0.00%     56.44% # Type of FU issued
system.cpu0.iq.FU_type_0::FloatMultAcc              0      0.00%     56.44% # Type of FU issued
system.cpu0.iq.FU_type_0::FloatDiv                  2      0.00%     56.44% # Type of FU issued
system.cpu0.iq.FU_type_0::FloatMisc                 4      0.00%     56.44% # Type of FU issued
system.cpu0.iq.FU_type_0::FloatSqrt                 0      0.00%     56.44% # Type of FU issued
system.cpu0.iq.FU_type_0::SimdAdd                   0      0.00%     56.44% # Type of FU issued
system.cpu0.iq.FU_type_0::SimdAddAcc                0      0.00%     56.44% # Type of FU issued
system.cpu0.iq.FU_type_0::SimdAlu                   0      0.00%     56.44% # Type of FU issued
system.cpu0.iq.FU_type_0::SimdCmp                   0      0.00%     56.44% # Type of FU issued
system.cpu0.iq.FU_type_0::SimdCvt                   0      0.00%     56.44% # Type of FU issued
system.cpu0.iq.FU_type_0::SimdMisc                  0      0.00%     56.44% # Type of FU issued
system.cpu0.iq.FU_type_0::SimdMult                  0      0.00%     56.44% # Type of FU issued
system.cpu0.iq.FU_type_0::SimdMultAcc               0      0.00%     56.44% # Type of FU issued
system.cpu0.iq.FU_type_0::SimdShift                 0      0.00%     56.44% # Type of FU issued
system.cpu0.iq.FU_type_0::SimdShiftAcc              0      0.00%     56.44% # Type of FU issued
system.cpu0.iq.FU_type_0::SimdDiv                   0      0.00%     56.44% # Type of FU issued
system.cpu0.iq.FU_type_0::SimdSqrt                  0      0.00%     56.44% # Type of FU issued
system.cpu0.iq.FU_type_0::SimdFloatAdd              0      0.00%     56.44% # Type of FU issued
system.cpu0.iq.FU_type_0::SimdFloatAlu              0      0.00%     56.44% # Type of FU issued
system.cpu0.iq.FU_type_0::SimdFloatCmp              0      0.00%     56.44% # Type of FU issued
system.cpu0.iq.FU_type_0::SimdFloatCvt              0      0.00%     56.44% # Type of FU issued
system.cpu0.iq.FU_type_0::SimdFloatDiv              0      0.00%     56.44% # Type of FU issued
system.cpu0.iq.FU_type_0::SimdFloatMisc             0      0.00%     56.44% # Type of FU issued
system.cpu0.iq.FU_type_0::SimdFloatMult             0      0.00%     56.44% # Type of FU issued
system.cpu0.iq.FU_type_0::SimdFloatMultAcc            0      0.00%     56.44% # Type of FU issued
system.cpu0.iq.FU_type_0::SimdFloatSqrt             0      0.00%     56.44% # Type of FU issued
system.cpu0.iq.FU_type_0::SimdReduceAdd             0      0.00%     56.44% # Type of FU issued
system.cpu0.iq.FU_type_0::SimdReduceAlu             0      0.00%     56.44% # Type of FU issued
system.cpu0.iq.FU_type_0::SimdReduceCmp             0      0.00%     56.44% # Type of FU issued
system.cpu0.iq.FU_type_0::SimdFloatReduceAdd            0      0.00%     56.44% # Type of FU issued
system.cpu0.iq.FU_type_0::SimdFloatReduceCmp            0      0.00%     56.44% # Type of FU issued
system.cpu0.iq.FU_type_0::SimdAes                   0      0.00%     56.44% # Type of FU issued
system.cpu0.iq.FU_type_0::SimdAesMix                0      0.00%     56.44% # Type of FU issued
system.cpu0.iq.FU_type_0::SimdSha1Hash              0      0.00%     56.44% # Type of FU issued
system.cpu0.iq.FU_type_0::SimdSha1Hash2             0      0.00%     56.44% # Type of FU issued
system.cpu0.iq.FU_type_0::SimdSha256Hash            0      0.00%     56.44% # Type of FU issued
system.cpu0.iq.FU_type_0::SimdSha256Hash2            0      0.00%     56.44% # Type of FU issued
system.cpu0.iq.FU_type_0::SimdShaSigma2             0      0.00%     56.44% # Type of FU issued
system.cpu0.iq.FU_type_0::SimdShaSigma3             0      0.00%     56.44% # Type of FU issued
system.cpu0.iq.FU_type_0::SimdPredAlu               0      0.00%     56.44% # Type of FU issued
system.cpu0.iq.FU_type_0::MemRead           481259124     30.85%     87.29% # Type of FU issued
system.cpu0.iq.FU_type_0::MemWrite          198208880     12.71%    100.00% # Type of FU issued
system.cpu0.iq.FU_type_0::FloatMemRead              9      0.00%    100.00% # Type of FU issued
system.cpu0.iq.FU_type_0::FloatMemWrite            20      0.00%    100.00% # Type of FU issued
system.cpu0.iq.FU_type_0::IprAccess                 0      0.00%    100.00% # Type of FU issued
system.cpu0.iq.FU_type_0::InstPrefetch              0      0.00%    100.00% # Type of FU issued
system.cpu0.iq.FU_type_0::total            1560001909                       # Type of FU issued
system.cpu0.iq.fp_alu_accesses                     55                       # Number of floating point alu accesses
system.cpu0.iq.fp_inst_queue_reads                106                       # Number of floating instruction queue reads
system.cpu0.iq.fp_inst_queue_wakeup_accesses           51                       # Number of floating instruction queue wakeup accesses
system.cpu0.iq.fp_inst_queue_writes                52                       # Number of floating instruction queue writes
system.cpu0.iq.fu_busy_cnt                    5207817                       # FU busy when requested
system.cpu0.iq.fu_busy_rate                  0.003338                       # FU busy rate (busy events/executed inst)
system.cpu0.iq.fu_full::No_OpClass                  0      0.00%      0.00% # attempts to use FU when none available
system.cpu0.iq.fu_full::IntAlu                 936491     17.98%     17.98% # attempts to use FU when none available
system.cpu0.iq.fu_full::IntMult                  1987      0.04%     18.02% # attempts to use FU when none available
system.cpu0.iq.fu_full::IntDiv                 838545     16.10%     34.12% # attempts to use FU when none available
system.cpu0.iq.fu_full::FloatAdd                    0      0.00%     34.12% # attempts to use FU when none available
system.cpu0.iq.fu_full::FloatCmp                    0      0.00%     34.12% # attempts to use FU when none available
system.cpu0.iq.fu_full::FloatCvt                    0      0.00%     34.12% # attempts to use FU when none available
system.cpu0.iq.fu_full::FloatMult                   0      0.00%     34.12% # attempts to use FU when none available
system.cpu0.iq.fu_full::FloatMultAcc                0      0.00%     34.12% # attempts to use FU when none available
system.cpu0.iq.fu_full::FloatDiv                    0      0.00%     34.12% # attempts to use FU when none available
system.cpu0.iq.fu_full::FloatMisc                   0      0.00%     34.12% # attempts to use FU when none available
system.cpu0.iq.fu_full::FloatSqrt                   0      0.00%     34.12% # attempts to use FU when none available
system.cpu0.iq.fu_full::SimdAdd                     0      0.00%     34.12% # attempts to use FU when none available
system.cpu0.iq.fu_full::SimdAddAcc                  0      0.00%     34.12% # attempts to use FU when none available
system.cpu0.iq.fu_full::SimdAlu                     0      0.00%     34.12% # attempts to use FU when none available
system.cpu0.iq.fu_full::SimdCmp                     0      0.00%     34.12% # attempts to use FU when none available
system.cpu0.iq.fu_full::SimdCvt                     0      0.00%     34.12% # attempts to use FU when none available
system.cpu0.iq.fu_full::SimdMisc                    0      0.00%     34.12% # attempts to use FU when none available
system.cpu0.iq.fu_full::SimdMult                    0      0.00%     34.12% # attempts to use FU when none available
system.cpu0.iq.fu_full::SimdMultAcc                 0      0.00%     34.12% # attempts to use FU when none available
system.cpu0.iq.fu_full::SimdShift                   0      0.00%     34.12% # attempts to use FU when none available
system.cpu0.iq.fu_full::SimdShiftAcc                0      0.00%     34.12% # attempts to use FU when none available
system.cpu0.iq.fu_full::SimdDiv                     0      0.00%     34.12% # attempts to use FU when none available
system.cpu0.iq.fu_full::SimdSqrt                    0      0.00%     34.12% # attempts to use FU when none available
system.cpu0.iq.fu_full::SimdFloatAdd                0      0.00%     34.12% # attempts to use FU when none available
system.cpu0.iq.fu_full::SimdFloatAlu                0      0.00%     34.12% # attempts to use FU when none available
system.cpu0.iq.fu_full::SimdFloatCmp                0      0.00%     34.12% # attempts to use FU when none available
system.cpu0.iq.fu_full::SimdFloatCvt                0      0.00%     34.12% # attempts to use FU when none available
system.cpu0.iq.fu_full::SimdFloatDiv                0      0.00%     34.12% # attempts to use FU when none available
system.cpu0.iq.fu_full::SimdFloatMisc               0      0.00%     34.12% # attempts to use FU when none available
system.cpu0.iq.fu_full::SimdFloatMult               0      0.00%     34.12% # attempts to use FU when none available
system.cpu0.iq.fu_full::SimdFloatMultAcc            0      0.00%     34.12% # attempts to use FU when none available
system.cpu0.iq.fu_full::SimdFloatSqrt               0      0.00%     34.12% # attempts to use FU when none available
system.cpu0.iq.fu_full::SimdReduceAdd               0      0.00%     34.12% # attempts to use FU when none available
system.cpu0.iq.fu_full::SimdReduceAlu               0      0.00%     34.12% # attempts to use FU when none available
system.cpu0.iq.fu_full::SimdReduceCmp               0      0.00%     34.12% # attempts to use FU when none available
system.cpu0.iq.fu_full::SimdFloatReduceAdd            0      0.00%     34.12% # attempts to use FU when none available
system.cpu0.iq.fu_full::SimdFloatReduceCmp            0      0.00%     34.12% # attempts to use FU when none available
system.cpu0.iq.fu_full::SimdAes                     0      0.00%     34.12% # attempts to use FU when none available
system.cpu0.iq.fu_full::SimdAesMix                  0      0.00%     34.12% # attempts to use FU when none available
system.cpu0.iq.fu_full::SimdSha1Hash                0      0.00%     34.12% # attempts to use FU when none available
system.cpu0.iq.fu_full::SimdSha1Hash2               0      0.00%     34.12% # attempts to use FU when none available
system.cpu0.iq.fu_full::SimdSha256Hash              0      0.00%     34.12% # attempts to use FU when none available
system.cpu0.iq.fu_full::SimdSha256Hash2             0      0.00%     34.12% # attempts to use FU when none available
system.cpu0.iq.fu_full::SimdShaSigma2               0      0.00%     34.12% # attempts to use FU when none available
system.cpu0.iq.fu_full::SimdShaSigma3               0      0.00%     34.12% # attempts to use FU when none available
system.cpu0.iq.fu_full::SimdPredAlu                 0      0.00%     34.12% # attempts to use FU when none available
system.cpu0.iq.fu_full::MemRead               2804710     53.86%     87.98% # attempts to use FU when none available
system.cpu0.iq.fu_full::MemWrite               626080     12.02%    100.00% # attempts to use FU when none available
system.cpu0.iq.fu_full::FloatMemRead                0      0.00%    100.00% # attempts to use FU when none available
system.cpu0.iq.fu_full::FloatMemWrite               4      0.00%    100.00% # attempts to use FU when none available
system.cpu0.iq.fu_full::IprAccess                   0      0.00%    100.00% # attempts to use FU when none available
system.cpu0.iq.fu_full::InstPrefetch                0      0.00%    100.00% # attempts to use FU when none available
system.cpu0.iq.int_alu_accesses            1561003944                       # Number of integer alu accesses
system.cpu0.iq.int_inst_queue_reads        5619961246                       # Number of integer instruction queue reads
system.cpu0.iq.int_inst_queue_wakeup_accesses   1537698441                       # Number of integer instruction queue wakeup accesses
system.cpu0.iq.int_inst_queue_writes       1734184884                       # Number of integer instruction queue writes
system.cpu0.iq.iqInstsAdded                1565919272                       # Number of instructions added to the IQ (excludes non-spec)
system.cpu0.iq.iqInstsIssued               1560001909                       # Number of instructions issued
system.cpu0.iq.iqNonSpecInstsAdded            6310380                       # Number of non-speculative instructions added to the IQ
system.cpu0.iq.iqSquashedInstsExamined      161938409                       # Number of squashed instructions iterated over during squash; mainly for profiling
system.cpu0.iq.iqSquashedInstsIssued           342396                       # Number of squashed instructions issued
system.cpu0.iq.iqSquashedNonSpecRemoved           604                       # Number of squashed non-spec instructions that were removed
system.cpu0.iq.iqSquashedOperandsExamined     36691637                       # Number of squashed operands that are examined and possibly removed from graph
system.cpu0.iq.issued_per_cycle::samples   2494407322                       # Number of insts issued each cycle
system.cpu0.iq.issued_per_cycle::mean        0.625400                       # Number of insts issued each cycle
system.cpu0.iq.issued_per_cycle::stdev       0.847792                       # Number of insts issued each cycle
system.cpu0.iq.issued_per_cycle::underflows            0      0.00%      0.00% # Number of insts issued each cycle
system.cpu0.iq.issued_per_cycle::0         1377848729     55.24%     55.24% # Number of insts issued each cycle
system.cpu0.iq.issued_per_cycle::1          775529478     31.09%     86.33% # Number of insts issued each cycle
system.cpu0.iq.issued_per_cycle::2          274892129     11.02%     97.35% # Number of insts issued each cycle
system.cpu0.iq.issued_per_cycle::3           43837623      1.76%     99.11% # Number of insts issued each cycle
system.cpu0.iq.issued_per_cycle::4           14650033      0.59%     99.69% # Number of insts issued each cycle
system.cpu0.iq.issued_per_cycle::5            2802806      0.11%     99.81% # Number of insts issued each cycle
system.cpu0.iq.issued_per_cycle::6            3681373      0.15%     99.95% # Number of insts issued each cycle
system.cpu0.iq.issued_per_cycle::7             848304      0.03%     99.99% # Number of insts issued each cycle
system.cpu0.iq.issued_per_cycle::8             316847      0.01%    100.00% # Number of insts issued each cycle
system.cpu0.iq.issued_per_cycle::overflows            0      0.00%    100.00% # Number of insts issued each cycle
system.cpu0.iq.issued_per_cycle::min_value            0                       # Number of insts issued each cycle
system.cpu0.iq.issued_per_cycle::max_value            8                       # Number of insts issued each cycle
system.cpu0.iq.issued_per_cycle::total     2494407322                       # Number of insts issued each cycle
system.cpu0.iq.rate                          0.545841                       # Inst issue rate
system.cpu0.iq.vec_alu_accesses                     0                       # Number of vector alu accesses
system.cpu0.iq.vec_inst_queue_reads                 0                       # Number of vector instruction queue reads
system.cpu0.iq.vec_inst_queue_wakeup_accesses            0                       # Number of vector instruction queue wakeup accesses
system.cpu0.iq.vec_inst_queue_writes                0                       # Number of vector instruction queue writes
system.cpu0.itb.accesses                            0                       # DTB accesses
system.cpu0.itb.hits                                0                       # DTB hits
system.cpu0.itb.misses                              0                       # DTB misses
system.cpu0.itb.read_accesses                       0                       # DTB read accesses
system.cpu0.itb.read_hits                           0                       # DTB read hits
system.cpu0.itb.read_misses                         0                       # DTB read misses
system.cpu0.itb.write_accesses                      0                       # DTB write accesses
system.cpu0.itb.write_hits                          0                       # DTB write hits
system.cpu0.itb.write_misses                        0                       # DTB write misses
system.cpu0.memDep0.conflictingLoads         22289981                       # Number of conflicting loads.
system.cpu0.memDep0.conflictingStores        11715538                       # Number of conflicting stores.
system.cpu0.memDep0.insertedLoads           476951098                       # Number of loads inserted to the mem dependence unit.
system.cpu0.memDep0.insertedStores          205176566                       # Number of stores inserted to the mem dependence unit.
system.cpu0.misc_regfile_reads                   1892                       # number of misc regfile reads
system.cpu0.misc_regfile_writes                    22                       # number of misc regfile writes
system.cpu0.numCycles                      2857980174                       # number of cpu cycles simulated
system.cpu0.numWorkItemsCompleted                   0                       # number of work items this cpu completed
system.cpu0.numWorkItemsStarted                     0                       # number of work items this cpu started
system.cpu0.quiesceCycles                    10163454                       # Total number of cycles that CPU has spent quiesced or waiting for an interrupt
system.cpu0.rename.BlockCycles              445150191                       # Number of cycles rename is blocking
system.cpu0.rename.CommittedMaps            911014845                       # Number of HB maps that are committed
system.cpu0.rename.IQFullEvents              15985995                       # Number of times rename has blocked due to IQ full
system.cpu0.rename.IdleCycles               849460762                       # Number of cycles rename is idle
system.cpu0.rename.LQFullEvents              32708808                       # Number of times rename has blocked due to LQ full
system.cpu0.rename.ROBFullEvents                49729                       # Number of times rename has blocked due to ROB full
system.cpu0.rename.RenameLookups           1964286670                       # Number of register rename lookups that rename has made
system.cpu0.rename.RenamedInsts            1588158616                       # Number of instructions processed by rename
system.cpu0.rename.RenamedOperands         1027497863                       # Number of destination operands rename has renamed
system.cpu0.rename.RunCycles               1107995785                       # Number of cycles rename is running
system.cpu0.rename.SQFullEvents              34101303                       # Number of times rename has blocked due to SQ full
system.cpu0.rename.SquashCycles               8321647                       # Number of cycles rename is squashing
system.cpu0.rename.UnblockCycles             83302285                       # Number of cycles rename is unblocking
system.cpu0.rename.UndoneMaps               116483006                       # Number of HB maps that are undone due to squashing
system.cpu0.rename.fp_rename_lookups               44                       # Number of floating rename lookups
system.cpu0.rename.int_rename_lookups      1964286626                       # Number of integer rename lookups
system.cpu0.rename.serializeStallCycles        176652                       # count of cycles rename stalled for serializing inst
system.cpu0.rename.serializingInsts              5928                       # count of serializing insts renamed
system.cpu0.rename.skidInsts                 36134647                       # count of insts added to the skid buffer
system.cpu0.rename.tempSerializingInsts          5925                       # count of temporary serializing insts renamed
system.cpu0.rob.rob_reads                  3989195771                       # The number of ROB reads
system.cpu0.rob.rob_writes                 3170538892                       # The number of ROB writes
system.cpu0.timesIdled                       26521887                       # Number of times that the entire CPU went into an idle state and unscheduled itself
system.cpu0.workload.numSyscalls                 1859                       # Number of system calls
system.cpu1.branchPred.BTBCorrect                   0                       # Number of correct BTB predictions (this stat may not work properly.
system.cpu1.branchPred.BTBHitPct            80.857478                       # BTB Hit Percentage
system.cpu1.branchPred.BTBHits               24781259                       # Number of BTB hits
system.cpu1.branchPred.BTBLookups            30648073                       # Number of BTB lookups
system.cpu1.branchPred.RASInCorrect                 0                       # Number of incorrect RAS predictions.
system.cpu1.branchPred.condIncorrect          2842896                       # Number of conditional branches incorrect
system.cpu1.branchPred.condPredicted         33006253                       # Number of conditional branches predicted
system.cpu1.branchPred.indirectHits           2162473                       # Number of indirect target hits.
system.cpu1.branchPred.indirectLookups        2175005                       # Number of indirect predictor lookups.
system.cpu1.branchPred.indirectMisses           12532                       # Number of indirect misses.
system.cpu1.branchPred.lookups               41835074                       # Number of BP lookups
system.cpu1.branchPred.usedRAS                      0                       # Number of times the RAS was used to get a target.
system.cpu1.branchPredindirectMispredicted       148588                       # Number of mispredicted indirect branches.
system.cpu1.commit.amos                       2100007                       # Number of atomic instructions committed
system.cpu1.commit.branchMispredicts          1929159                       # The number of times a branch was mispredicted
system.cpu1.commit.branches                  34318125                       # Number of branches committed
system.cpu1.commit.bw_lim_events              6240057                       # number cycles where commit BW limit reached
system.cpu1.commit.commitNonSpecStalls        6300702                       # The number of times commit has been forced to stall to communicate backwards
system.cpu1.commit.commitSquashedInsts       17913849                       # The number of squashed insts skipped by commit
system.cpu1.commit.committedInsts           158035277                       # Number of instructions committed
system.cpu1.commit.committedOps             160135463                       # Number of ops (including micro ops) committed
system.cpu1.commit.committed_per_cycle::samples    554355694                       # Number of insts commited each cycle
system.cpu1.commit.committed_per_cycle::mean     0.288868                       # Number of insts commited each cycle
system.cpu1.commit.committed_per_cycle::stdev     1.091415                       # Number of insts commited each cycle
system.cpu1.commit.committed_per_cycle::underflows            0      0.00%      0.00% # Number of insts commited each cycle
system.cpu1.commit.committed_per_cycle::0    489440690     88.29%     88.29% # Number of insts commited each cycle
system.cpu1.commit.committed_per_cycle::1     32837976      5.92%     94.21% # Number of insts commited each cycle
system.cpu1.commit.committed_per_cycle::2     12953058      2.34%     96.55% # Number of insts commited each cycle
system.cpu1.commit.committed_per_cycle::3      5956567      1.07%     97.62% # Number of insts commited each cycle
system.cpu1.commit.committed_per_cycle::4      3084284      0.56%     98.18% # Number of insts commited each cycle
system.cpu1.commit.committed_per_cycle::5      2301530      0.42%     98.60% # Number of insts commited each cycle
system.cpu1.commit.committed_per_cycle::6      1034296      0.19%     98.78% # Number of insts commited each cycle
system.cpu1.commit.committed_per_cycle::7       507236      0.09%     98.87% # Number of insts commited each cycle
system.cpu1.commit.committed_per_cycle::8      6240057      1.13%    100.00% # Number of insts commited each cycle
system.cpu1.commit.committed_per_cycle::overflows            0      0.00%    100.00% # Number of insts commited each cycle
system.cpu1.commit.committed_per_cycle::min_value            0                       # Number of insts commited each cycle
system.cpu1.commit.committed_per_cycle::max_value            8                       # Number of insts commited each cycle
system.cpu1.commit.committed_per_cycle::total    554355694                       # Number of insts commited each cycle
system.cpu1.commit.fp_insts                        12                       # Number of committed floating point instructions.
system.cpu1.commit.function_calls             3697304                       # Number of function calls committed.
system.cpu1.commit.int_insts                152828495                       # Number of committed integer instructions.
system.cpu1.commit.loads                     38893943                       # Number of loads committed
system.cpu1.commit.membars                    4200136                       # Number of memory barriers committed
system.cpu1.commit.op_class_0::No_OpClass      4200136      2.62%      2.62% # Class of committed instruction
system.cpu1.commit.op_class_0::IntAlu        98357354     61.42%     64.04% # Class of committed instruction
system.cpu1.commit.op_class_0::IntMult         265371      0.17%     64.21% # Class of committed instruction
system.cpu1.commit.op_class_0::IntDiv          526963      0.33%     64.54% # Class of committed instruction
system.cpu1.commit.op_class_0::FloatAdd             0      0.00%     64.54% # Class of committed instruction
system.cpu1.commit.op_class_0::FloatCmp             0      0.00%     64.54% # Class of committed instruction
system.cpu1.commit.op_class_0::FloatCvt             0      0.00%     64.54% # Class of committed instruction
system.cpu1.commit.op_class_0::FloatMult            0      0.00%     64.54% # Class of committed instruction
system.cpu1.commit.op_class_0::FloatMultAcc            0      0.00%     64.54% # Class of committed instruction
system.cpu1.commit.op_class_0::FloatDiv             0      0.00%     64.54% # Class of committed instruction
system.cpu1.commit.op_class_0::FloatMisc            0      0.00%     64.54% # Class of committed instruction
system.cpu1.commit.op_class_0::FloatSqrt            0      0.00%     64.54% # Class of committed instruction
system.cpu1.commit.op_class_0::SimdAdd              0      0.00%     64.54% # Class of committed instruction
system.cpu1.commit.op_class_0::SimdAddAcc            0      0.00%     64.54% # Class of committed instruction
system.cpu1.commit.op_class_0::SimdAlu              0      0.00%     64.54% # Class of committed instruction
system.cpu1.commit.op_class_0::SimdCmp              0      0.00%     64.54% # Class of committed instruction
system.cpu1.commit.op_class_0::SimdCvt              0      0.00%     64.54% # Class of committed instruction
system.cpu1.commit.op_class_0::SimdMisc             0      0.00%     64.54% # Class of committed instruction
system.cpu1.commit.op_class_0::SimdMult             0      0.00%     64.54% # Class of committed instruction
system.cpu1.commit.op_class_0::SimdMultAcc            0      0.00%     64.54% # Class of committed instruction
system.cpu1.commit.op_class_0::SimdShift            0      0.00%     64.54% # Class of committed instruction
system.cpu1.commit.op_class_0::SimdShiftAcc            0      0.00%     64.54% # Class of committed instruction
system.cpu1.commit.op_class_0::SimdDiv              0      0.00%     64.54% # Class of committed instruction
system.cpu1.commit.op_class_0::SimdSqrt             0      0.00%     64.54% # Class of committed instruction
system.cpu1.commit.op_class_0::SimdFloatAdd            0      0.00%     64.54% # Class of committed instruction
system.cpu1.commit.op_class_0::SimdFloatAlu            0      0.00%     64.54% # Class of committed instruction
system.cpu1.commit.op_class_0::SimdFloatCmp            0      0.00%     64.54% # Class of committed instruction
system.cpu1.commit.op_class_0::SimdFloatCvt            0      0.00%     64.54% # Class of committed instruction
system.cpu1.commit.op_class_0::SimdFloatDiv            0      0.00%     64.54% # Class of committed instruction
system.cpu1.commit.op_class_0::SimdFloatMisc            0      0.00%     64.54% # Class of committed instruction
system.cpu1.commit.op_class_0::SimdFloatMult            0      0.00%     64.54% # Class of committed instruction
system.cpu1.commit.op_class_0::SimdFloatMultAcc            0      0.00%     64.54% # Class of committed instruction
system.cpu1.commit.op_class_0::SimdFloatSqrt            0      0.00%     64.54% # Class of committed instruction
system.cpu1.commit.op_class_0::SimdReduceAdd            0      0.00%     64.54% # Class of committed instruction
system.cpu1.commit.op_class_0::SimdReduceAlu            0      0.00%     64.54% # Class of committed instruction
system.cpu1.commit.op_class_0::SimdReduceCmp            0      0.00%     64.54% # Class of committed instruction
system.cpu1.commit.op_class_0::SimdFloatReduceAdd            0      0.00%     64.54% # Class of committed instruction
system.cpu1.commit.op_class_0::SimdFloatReduceCmp            0      0.00%     64.54% # Class of committed instruction
system.cpu1.commit.op_class_0::SimdAes              0      0.00%     64.54% # Class of committed instruction
system.cpu1.commit.op_class_0::SimdAesMix            0      0.00%     64.54% # Class of committed instruction
system.cpu1.commit.op_class_0::SimdSha1Hash            0      0.00%     64.54% # Class of committed instruction
system.cpu1.commit.op_class_0::SimdSha1Hash2            0      0.00%     64.54% # Class of committed instruction
system.cpu1.commit.op_class_0::SimdSha256Hash            0      0.00%     64.54% # Class of committed instruction
system.cpu1.commit.op_class_0::SimdSha256Hash2            0      0.00%     64.54% # Class of committed instruction
system.cpu1.commit.op_class_0::SimdShaSigma2            0      0.00%     64.54% # Class of committed instruction
system.cpu1.commit.op_class_0::SimdShaSigma3            0      0.00%     64.54% # Class of committed instruction
system.cpu1.commit.op_class_0::SimdPredAlu            0      0.00%     64.54% # Class of committed instruction
system.cpu1.commit.op_class_0::MemRead       40993950     25.60%     90.14% # Class of committed instruction
system.cpu1.commit.op_class_0::MemWrite      15791677      9.86%    100.00% # Class of committed instruction
system.cpu1.commit.op_class_0::FloatMemRead            0      0.00%    100.00% # Class of committed instruction
system.cpu1.commit.op_class_0::FloatMemWrite           12      0.00%    100.00% # Class of committed instruction
system.cpu1.commit.op_class_0::IprAccess            0      0.00%    100.00% # Class of committed instruction
system.cpu1.commit.op_class_0::InstPrefetch            0      0.00%    100.00% # Class of committed instruction
system.cpu1.commit.op_class_0::total        160135463                       # Class of committed instruction
system.cpu1.commit.refs                      56785639                       # Number of memory references committed
system.cpu1.commit.swp_count                        0                       # Number of s/w prefetches committed
system.cpu1.commit.vec_insts                        0                       # Number of committed Vector instructions.
system.cpu1.committedInsts                  158035277                       # Number of Instructions Simulated
system.cpu1.committedOps                    160135463                       # Number of Ops (including micro ops) Simulated
system.cpu1.cpi                              3.562111                       # CPI: Cycles Per Instruction
system.cpu1.cpi_total                        3.562111                       # CPI: Total CPI of All Threads
system.cpu1.decode.BlockedCycles            415375430                       # Number of cycles decode is blocked
system.cpu1.decode.BranchMispred               930238                       # Number of times decode detected a branch misprediction
system.cpu1.decode.BranchResolved            23360856                       # Number of times decode resolved a branch
system.cpu1.decode.DecodedInsts             185307215                       # Number of instructions handled by decode
system.cpu1.decode.IdleCycles                42376924                       # Number of cycles decode is idle
system.cpu1.decode.RunCycles                 92817681                       # Number of cycles decode is running
system.cpu1.decode.SquashCycles               1930417                       # Number of cycles decode is squashing
system.cpu1.decode.SquashedInsts              2299650                       # Number of squashed instructions handled by decode
system.cpu1.decode.UnblockCycles              5538553                       # Number of cycles decode is unblocking
system.cpu1.dtb.accesses                            0                       # DTB accesses
system.cpu1.dtb.hits                                0                       # DTB hits
system.cpu1.dtb.misses                              0                       # DTB misses
system.cpu1.dtb.read_accesses                       0                       # DTB read accesses
system.cpu1.dtb.read_hits                           0                       # DTB read hits
system.cpu1.dtb.read_misses                         0                       # DTB read misses
system.cpu1.dtb.write_accesses                      0                       # DTB write accesses
system.cpu1.dtb.write_hits                          0                       # DTB write hits
system.cpu1.dtb.write_misses                        0                       # DTB write misses
system.cpu1.fetch.Branches                   41835074                       # Number of branches that fetch encountered
system.cpu1.fetch.CacheLines                 33091985                       # Number of cache lines fetched
system.cpu1.fetch.Cycles                    510444099                       # Number of cycles fetch has run and was not squashing or blocked
system.cpu1.fetch.IcacheSquashes               779619                       # Number of outstanding Icache misses that were squashed
system.cpu1.fetch.Insts                     191793966                       # Number of instructions fetch has processed
system.cpu1.fetch.MiscStallCycles                   3                       # Number of cycles fetch has spent waiting on interrupts, or bad addresses, or out of MSHRs
system.cpu1.fetch.PendingTrapStallCycles            6                       # Number of stall cycles due to pending traps
system.cpu1.fetch.SquashCycles                5688310                       # Number of cycles fetch has spent squashing
system.cpu1.fetch.branchRate                 0.074315                       # Number of branch fetches per cycle
system.cpu1.fetch.icacheStallCycles          44750742                       # Number of cycles fetch is stalled on an Icache miss
system.cpu1.fetch.predictedBranches          26943732                       # Number of branches that fetch has predicted taken
system.cpu1.fetch.rate                       0.340701                       # Number of inst fetches per cycle
system.cpu1.fetch.rateDist::samples         558039005                       # Number of instructions fetched each cycle (Total)
system.cpu1.fetch.rateDist::mean             0.347457                       # Number of instructions fetched each cycle (Total)
system.cpu1.fetch.rateDist::stdev            0.771552                       # Number of instructions fetched each cycle (Total)
system.cpu1.fetch.rateDist::underflows              0      0.00%      0.00% # Number of instructions fetched each cycle (Total)
system.cpu1.fetch.rateDist::0               429960029     77.05%     77.05% # Number of instructions fetched each cycle (Total)
system.cpu1.fetch.rateDist::1                86402358     15.48%     92.53% # Number of instructions fetched each cycle (Total)
system.cpu1.fetch.rateDist::2                26191651      4.69%     97.23% # Number of instructions fetched each cycle (Total)
system.cpu1.fetch.rateDist::3                10362330      1.86%     99.08% # Number of instructions fetched each cycle (Total)
system.cpu1.fetch.rateDist::4                 2286875      0.41%     99.49% # Number of instructions fetched each cycle (Total)
system.cpu1.fetch.rateDist::5                 2140903      0.38%     99.88% # Number of instructions fetched each cycle (Total)
system.cpu1.fetch.rateDist::6                  694427      0.12%    100.00% # Number of instructions fetched each cycle (Total)
system.cpu1.fetch.rateDist::7                     189      0.00%    100.00% # Number of instructions fetched each cycle (Total)
system.cpu1.fetch.rateDist::8                     243      0.00%    100.00% # Number of instructions fetched each cycle (Total)
system.cpu1.fetch.rateDist::overflows               0      0.00%    100.00% # Number of instructions fetched each cycle (Total)
system.cpu1.fetch.rateDist::min_value               0                       # Number of instructions fetched each cycle (Total)
system.cpu1.fetch.rateDist::max_value               8                       # Number of instructions fetched each cycle (Total)
system.cpu1.fetch.rateDist::total           558039005                       # Number of instructions fetched each cycle (Total)
system.cpu1.fp_regfile_reads                       12                       # number of floating regfile reads
system.cpu1.idleCycles                        4900230                       # Total number of cycles that the CPU has spent unscheduled due to idling
system.cpu1.iew.branchMispredicts             2002709                       # Number of branch mispredicts detected at execute
system.cpu1.iew.exec_branches                37079098                       # Number of branches executed
system.cpu1.iew.exec_nop                            0                       # number of nop insts executed
system.cpu1.iew.exec_rate                    0.306972                       # Inst execution rate
system.cpu1.iew.exec_refs                    61366199                       # number of memory reference insts executed
system.cpu1.iew.exec_stores                  18517656                       # Number of stores executed
system.cpu1.iew.exec_swp                            0                       # number of swp insts executed
system.cpu1.iew.iewBlockCycles              339474194                       # Number of cycles IEW is blocking
system.cpu1.iew.iewDispLoadInsts             43658202                       # Number of dispatched load instructions
system.cpu1.iew.iewDispNonSpecInsts           2100703                       # Number of dispatched non-speculative instructions
system.cpu1.iew.iewDispSquashedInsts          1780499                       # Number of squashed instructions skipped by dispatch
system.cpu1.iew.iewDispStoreInsts            19062313                       # Number of dispatched store instructions
system.cpu1.iew.iewDispatchedInsts          178004562                       # Number of instructions dispatched to IQ
system.cpu1.iew.iewExecLoadInsts             42848543                       # Number of load instructions executed
system.cpu1.iew.iewExecSquashedInsts          1635690                       # Number of squashed instructions skipped in execute
system.cpu1.iew.iewExecutedInsts            172806521                       # Number of executed instructions
system.cpu1.iew.iewIQFullEvents               1128516                       # Number of times the IQ has become full, causing a stall
system.cpu1.iew.iewIdleCycles                       0                       # Number of cycles IEW is idle
system.cpu1.iew.iewLSQFullEvents              9427835                       # Number of times the LSQ has become full, causing a stall
system.cpu1.iew.iewSquashCycles               1930417                       # Number of cycles IEW is squashing
system.cpu1.iew.iewUnblockCycles             13408135                       # Number of cycles IEW is unblocking
system.cpu1.iew.lsq.thread0.blockedLoads            0                       # Number of blocked loads due to partial load-store forwarding
system.cpu1.iew.lsq.thread0.cacheBlocked       100254                       # Number of times an access to memory failed due to the cache being blocked
system.cpu1.iew.lsq.thread0.forwLoads         1442111                       # Number of loads that had data forwarded from stores
system.cpu1.iew.lsq.thread0.ignoredResponses        28347                       # Number of memory responses ignored because the instruction is squashed
system.cpu1.iew.lsq.thread0.invAddrLoads            0                       # Number of loads ignored due to an invalid address
system.cpu1.iew.lsq.thread0.invAddrSwpfs            0                       # Number of software prefetches ignored due to an invalid address
system.cpu1.iew.lsq.thread0.memOrderViolation         1669                       # Number of memory ordering violations
system.cpu1.iew.lsq.thread0.rescheduledLoads         3571                       # Number of loads that were rescheduled
system.cpu1.iew.lsq.thread0.squashedLoads      4764259                       # Number of loads squashed
system.cpu1.iew.lsq.thread0.squashedStores      1170617                       # Number of stores squashed
system.cpu1.iew.memOrderViolationEvents          1669                       # Number of memory order violations
system.cpu1.iew.predictedNotTakenIncorrect       408703                       # Number of branches that were predicted not taken incorrectly
system.cpu1.iew.predictedTakenIncorrect       1594006                       # Number of branches that were predicted taken incorrectly
system.cpu1.iew.wb_consumers                 93932232                       # num instructions consuming a value
system.cpu1.iew.wb_count                    171504682                       # cumulative count of insts written-back
system.cpu1.iew.wb_fanout                    0.821468                       # average fanout of values written-back
system.cpu1.iew.wb_producers                 77162328                       # num instructions producing a value
system.cpu1.iew.wb_rate                      0.304659                       # insts written-back per cycle
system.cpu1.iew.wb_sent                     171576868                       # cumulative count of insts sent to commit
system.cpu1.int_regfile_reads               218261431                       # number of integer regfile reads
system.cpu1.int_regfile_writes              115779374                       # number of integer regfile writes
system.cpu1.ipc                              0.280732                       # IPC: Instructions Per Cycle
system.cpu1.ipc_total                        0.280732                       # IPC: Total IPC of All Threads
system.cpu1.iq.FU_type_0::No_OpClass          4200238      2.41%      2.41% # Type of FU issued
system.cpu1.iq.FU_type_0::IntAlu            107327282     61.53%     63.93% # Type of FU issued
system.cpu1.iq.FU_type_0::IntMult              265406      0.15%     64.09% # Type of FU issued
system.cpu1.iq.FU_type_0::IntDiv               527036      0.30%     64.39% # Type of FU issued
system.cpu1.iq.FU_type_0::FloatAdd                  0      0.00%     64.39% # Type of FU issued
system.cpu1.iq.FU_type_0::FloatCmp                  0      0.00%     64.39% # Type of FU issued
system.cpu1.iq.FU_type_0::FloatCvt                  0      0.00%     64.39% # Type of FU issued
system.cpu1.iq.FU_type_0::FloatMult                 0      0.00%     64.39% # Type of FU issued
system.cpu1.iq.FU_type_0::FloatMultAcc              0      0.00%     64.39% # Type of FU issued
system.cpu1.iq.FU_type_0::FloatDiv                  0      0.00%     64.39% # Type of FU issued
system.cpu1.iq.FU_type_0::FloatMisc                 0      0.00%     64.39% # Type of FU issued
system.cpu1.iq.FU_type_0::FloatSqrt                 0      0.00%     64.39% # Type of FU issued
system.cpu1.iq.FU_type_0::SimdAdd                   0      0.00%     64.39% # Type of FU issued
system.cpu1.iq.FU_type_0::SimdAddAcc                0      0.00%     64.39% # Type of FU issued
system.cpu1.iq.FU_type_0::SimdAlu                   0      0.00%     64.39% # Type of FU issued
system.cpu1.iq.FU_type_0::SimdCmp                   0      0.00%     64.39% # Type of FU issued
system.cpu1.iq.FU_type_0::SimdCvt                   0      0.00%     64.39% # Type of FU issued
system.cpu1.iq.FU_type_0::SimdMisc                  0      0.00%     64.39% # Type of FU issued
system.cpu1.iq.FU_type_0::SimdMult                  0      0.00%     64.39% # Type of FU issued
system.cpu1.iq.FU_type_0::SimdMultAcc               0      0.00%     64.39% # Type of FU issued
system.cpu1.iq.FU_type_0::SimdShift                 0      0.00%     64.39% # Type of FU issued
system.cpu1.iq.FU_type_0::SimdShiftAcc              0      0.00%     64.39% # Type of FU issued
system.cpu1.iq.FU_type_0::SimdDiv                   0      0.00%     64.39% # Type of FU issued
system.cpu1.iq.FU_type_0::SimdSqrt                  0      0.00%     64.39% # Type of FU issued
system.cpu1.iq.FU_type_0::SimdFloatAdd              0      0.00%     64.39% # Type of FU issued
system.cpu1.iq.FU_type_0::SimdFloatAlu              0      0.00%     64.39% # Type of FU issued
system.cpu1.iq.FU_type_0::SimdFloatCmp              0      0.00%     64.39% # Type of FU issued
system.cpu1.iq.FU_type_0::SimdFloatCvt              0      0.00%     64.39% # Type of FU issued
system.cpu1.iq.FU_type_0::SimdFloatDiv              0      0.00%     64.39% # Type of FU issued
system.cpu1.iq.FU_type_0::SimdFloatMisc             0      0.00%     64.39% # Type of FU issued
system.cpu1.iq.FU_type_0::SimdFloatMult             0      0.00%     64.39% # Type of FU issued
system.cpu1.iq.FU_type_0::SimdFloatMultAcc            0      0.00%     64.39% # Type of FU issued
system.cpu1.iq.FU_type_0::SimdFloatSqrt             0      0.00%     64.39% # Type of FU issued
system.cpu1.iq.FU_type_0::SimdReduceAdd             0      0.00%     64.39% # Type of FU issued
system.cpu1.iq.FU_type_0::SimdReduceAlu             0      0.00%     64.39% # Type of FU issued
system.cpu1.iq.FU_type_0::SimdReduceCmp             0      0.00%     64.39% # Type of FU issued
system.cpu1.iq.FU_type_0::SimdFloatReduceAdd            0      0.00%     64.39% # Type of FU issued
system.cpu1.iq.FU_type_0::SimdFloatReduceCmp            0      0.00%     64.39% # Type of FU issued
system.cpu1.iq.FU_type_0::SimdAes                   0      0.00%     64.39% # Type of FU issued
system.cpu1.iq.FU_type_0::SimdAesMix                0      0.00%     64.39% # Type of FU issued
system.cpu1.iq.FU_type_0::SimdSha1Hash              0      0.00%     64.39% # Type of FU issued
system.cpu1.iq.FU_type_0::SimdSha1Hash2             0      0.00%     64.39% # Type of FU issued
system.cpu1.iq.FU_type_0::SimdSha256Hash            0      0.00%     64.39% # Type of FU issued
system.cpu1.iq.FU_type_0::SimdSha256Hash2            0      0.00%     64.39% # Type of FU issued
system.cpu1.iq.FU_type_0::SimdShaSigma2             0      0.00%     64.39% # Type of FU issued
system.cpu1.iq.FU_type_0::SimdShaSigma3             0      0.00%     64.39% # Type of FU issued
system.cpu1.iq.FU_type_0::SimdPredAlu               0      0.00%     64.39% # Type of FU issued
system.cpu1.iq.FU_type_0::MemRead            45618160     26.15%     90.54% # Type of FU issued
system.cpu1.iq.FU_type_0::MemWrite           16504077      9.46%    100.00% # Type of FU issued
system.cpu1.iq.FU_type_0::FloatMemRead              0      0.00%    100.00% # Type of FU issued
system.cpu1.iq.FU_type_0::FloatMemWrite            12      0.00%    100.00% # Type of FU issued
system.cpu1.iq.FU_type_0::IprAccess                 0      0.00%    100.00% # Type of FU issued
system.cpu1.iq.FU_type_0::InstPrefetch              0      0.00%    100.00% # Type of FU issued
system.cpu1.iq.FU_type_0::total             174442211                       # Type of FU issued
system.cpu1.iq.fp_alu_accesses                     16                       # Number of floating point alu accesses
system.cpu1.iq.fp_inst_queue_reads                 28                       # Number of floating instruction queue reads
system.cpu1.iq.fp_inst_queue_wakeup_accesses           12                       # Number of floating instruction queue wakeup accesses
system.cpu1.iq.fp_inst_queue_writes                12                       # Number of floating instruction queue writes
system.cpu1.iq.fu_busy_cnt                    4124289                       # FU busy when requested
system.cpu1.iq.fu_busy_rate                  0.023643                       # FU busy rate (busy events/executed inst)
system.cpu1.iq.fu_full::No_OpClass                  0      0.00%      0.00% # attempts to use FU when none available
system.cpu1.iq.fu_full::IntAlu                 687708     16.67%     16.67% # attempts to use FU when none available
system.cpu1.iq.fu_full::IntMult                  3137      0.08%     16.75% # attempts to use FU when none available
system.cpu1.iq.fu_full::IntDiv                 401233      9.73%     26.48% # attempts to use FU when none available
system.cpu1.iq.fu_full::FloatAdd                    0      0.00%     26.48% # attempts to use FU when none available
system.cpu1.iq.fu_full::FloatCmp                    0      0.00%     26.48% # attempts to use FU when none available
system.cpu1.iq.fu_full::FloatCvt                    0      0.00%     26.48% # attempts to use FU when none available
system.cpu1.iq.fu_full::FloatMult                   0      0.00%     26.48% # attempts to use FU when none available
system.cpu1.iq.fu_full::FloatMultAcc                0      0.00%     26.48% # attempts to use FU when none available
system.cpu1.iq.fu_full::FloatDiv                    0      0.00%     26.48% # attempts to use FU when none available
system.cpu1.iq.fu_full::FloatMisc                   0      0.00%     26.48% # attempts to use FU when none available
system.cpu1.iq.fu_full::FloatSqrt                   0      0.00%     26.48% # attempts to use FU when none available
system.cpu1.iq.fu_full::SimdAdd                     0      0.00%     26.48% # attempts to use FU when none available
system.cpu1.iq.fu_full::SimdAddAcc                  0      0.00%     26.48% # attempts to use FU when none available
system.cpu1.iq.fu_full::SimdAlu                     0      0.00%     26.48% # attempts to use FU when none available
system.cpu1.iq.fu_full::SimdCmp                     0      0.00%     26.48% # attempts to use FU when none available
system.cpu1.iq.fu_full::SimdCvt                     0      0.00%     26.48% # attempts to use FU when none available
system.cpu1.iq.fu_full::SimdMisc                    0      0.00%     26.48% # attempts to use FU when none available
system.cpu1.iq.fu_full::SimdMult                    0      0.00%     26.48% # attempts to use FU when none available
system.cpu1.iq.fu_full::SimdMultAcc                 0      0.00%     26.48% # attempts to use FU when none available
system.cpu1.iq.fu_full::SimdShift                   0      0.00%     26.48% # attempts to use FU when none available
system.cpu1.iq.fu_full::SimdShiftAcc                0      0.00%     26.48% # attempts to use FU when none available
system.cpu1.iq.fu_full::SimdDiv                     0      0.00%     26.48% # attempts to use FU when none available
system.cpu1.iq.fu_full::SimdSqrt                    0      0.00%     26.48% # attempts to use FU when none available
system.cpu1.iq.fu_full::SimdFloatAdd                0      0.00%     26.48% # attempts to use FU when none available
system.cpu1.iq.fu_full::SimdFloatAlu                0      0.00%     26.48% # attempts to use FU when none available
system.cpu1.iq.fu_full::SimdFloatCmp                0      0.00%     26.48% # attempts to use FU when none available
system.cpu1.iq.fu_full::SimdFloatCvt                0      0.00%     26.48% # attempts to use FU when none available
system.cpu1.iq.fu_full::SimdFloatDiv                0      0.00%     26.48% # attempts to use FU when none available
system.cpu1.iq.fu_full::SimdFloatMisc               0      0.00%     26.48% # attempts to use FU when none available
system.cpu1.iq.fu_full::SimdFloatMult               0      0.00%     26.48% # attempts to use FU when none available
system.cpu1.iq.fu_full::SimdFloatMultAcc            0      0.00%     26.48% # attempts to use FU when none available
system.cpu1.iq.fu_full::SimdFloatSqrt               0      0.00%     26.48% # attempts to use FU when none available
system.cpu1.iq.fu_full::SimdReduceAdd               0      0.00%     26.48% # attempts to use FU when none available
system.cpu1.iq.fu_full::SimdReduceAlu               0      0.00%     26.48% # attempts to use FU when none available
system.cpu1.iq.fu_full::SimdReduceCmp               0      0.00%     26.48% # attempts to use FU when none available
system.cpu1.iq.fu_full::SimdFloatReduceAdd            0      0.00%     26.48% # attempts to use FU when none available
system.cpu1.iq.fu_full::SimdFloatReduceCmp            0      0.00%     26.48% # attempts to use FU when none available
system.cpu1.iq.fu_full::SimdAes                     0      0.00%     26.48% # attempts to use FU when none available
system.cpu1.iq.fu_full::SimdAesMix                  0      0.00%     26.48% # attempts to use FU when none available
system.cpu1.iq.fu_full::SimdSha1Hash                0      0.00%     26.48% # attempts to use FU when none available
system.cpu1.iq.fu_full::SimdSha1Hash2               0      0.00%     26.48% # attempts to use FU when none available
system.cpu1.iq.fu_full::SimdSha256Hash              0      0.00%     26.48% # attempts to use FU when none available
system.cpu1.iq.fu_full::SimdSha256Hash2             0      0.00%     26.48% # attempts to use FU when none available
system.cpu1.iq.fu_full::SimdShaSigma2               0      0.00%     26.48% # attempts to use FU when none available
system.cpu1.iq.fu_full::SimdShaSigma3               0      0.00%     26.48% # attempts to use FU when none available
system.cpu1.iq.fu_full::SimdPredAlu                 0      0.00%     26.48% # attempts to use FU when none available
system.cpu1.iq.fu_full::MemRead               2465187     59.77%     86.25% # attempts to use FU when none available
[...]
system.cpu1.dcache.WriteReq_misses::.cpu1.data      2503131                       # number of WriteReq misses
system.cpu1.dcache.WriteReq_misses::total      2503131                       # number of WriteReq misses
system.cpu1.dcache.WriteReq_miss_latency::.cpu1.data 174660639225                       # number of WriteReq miss cycles
system.cpu1.dcache.WriteReq_miss_latency::total 174660639225                       # number of WriteReq miss cycles
system.cpu1.dcache.WriteReq_accesses::.cpu1.data      5889356                       # number of WriteReq accesses(hits+misses)
system.cpu1.dcache.WriteReq_accesses::total      5889356                       # number of WriteReq accesses(hits+misses)
system.cpu1.dcache.WriteReq_miss_rate::.cpu1.data     0.425026                       # miss rate for WriteReq accesses
system.cpu1.dcache.WriteReq_miss_rate::total     0.425026                       # miss rate for WriteReq accesses
system.cpu1.dcache.WriteReq_avg_miss_latency::.cpu1.data 69776.867142                       # average WriteReq miss latency
system.cpu1.dcache.WriteReq_avg_miss_latency::total 69776.867142                       # average WriteReq miss latency
system.cpu1.dcache.WriteReq_mshr_hits::.cpu1.data      2057279                       # number of WriteReq MSHR hits
system.cpu1.dcache.WriteReq_mshr_hits::total      2057279                       # number of WriteReq MSHR hits
system.cpu1.dcache.WriteReq_mshr_misses::.cpu1.data       445852                       # number of WriteReq MSHR misses
system.cpu1.dcache.WriteReq_mshr_misses::total       445852                       # number of WriteReq MSHR misses
system.cpu1.dcache.WriteReq_mshr_miss_latency::.cpu1.data  32638569958                       # number of WriteReq MSHR miss cycles
system.cpu1.dcache.WriteReq_mshr_miss_latency::total  32638569958                       # number of WriteReq MSHR miss cycles
system.cpu1.dcache.WriteReq_mshr_miss_rate::.cpu1.data     0.075705                       # mshr miss rate for WriteReq accesses
system.cpu1.dcache.WriteReq_mshr_miss_rate::total     0.075705                       # mshr miss rate for WriteReq accesses
system.cpu1.dcache.WriteReq_avg_mshr_miss_latency::.cpu1.data 73204.942353                       # average WriteReq mshr miss latency
system.cpu1.dcache.WriteReq_avg_mshr_miss_latency::total 73204.942353                       # average WriteReq mshr miss latency
system.cpu1.dcache.LoadLockedReq_hits::.cpu1.data        76204                       # number of LoadLockedReq hits
system.cpu1.dcache.LoadLockedReq_hits::total        76204                       # number of LoadLockedReq hits
system.cpu1.dcache.LoadLockedReq_misses::.cpu1.data        26652                       # number of LoadLockedReq misses
system.cpu1.dcache.LoadLockedReq_misses::total        26652                       # number of LoadLockedReq misses
system.cpu1.dcache.LoadLockedReq_miss_latency::.cpu1.data    845913500                       # number of LoadLockedReq miss cycles
system.cpu1.dcache.LoadLockedReq_miss_latency::total    845913500                       # number of LoadLockedReq miss cycles
system.cpu1.dcache.LoadLockedReq_accesses::.cpu1.data       102856                       # number of LoadLockedReq accesses(hits+misses)
system.cpu1.dcache.LoadLockedReq_accesses::total       102856                       # number of LoadLockedReq accesses(hits+misses)
system.cpu1.dcache.LoadLockedReq_miss_rate::.cpu1.data     0.259120                       # miss rate for LoadLockedReq accesses
system.cpu1.dcache.LoadLockedReq_miss_rate::total     0.259120                       # miss rate for LoadLockedReq accesses
system.cpu1.dcache.LoadLockedReq_avg_miss_latency::.cpu1.data 31739.212817                       # average LoadLockedReq miss latency
system.cpu1.dcache.LoadLockedReq_avg_miss_latency::total 31739.212817                       # average LoadLockedReq miss latency
system.cpu1.dcache.LoadLockedReq_mshr_hits::.cpu1.data        23360                       # number of LoadLockedReq MSHR hits
system.cpu1.dcache.LoadLockedReq_mshr_hits::total        23360                       # number of LoadLockedReq MSHR hits
system.cpu1.dcache.LoadLockedReq_mshr_misses::.cpu1.data         3292                       # number of LoadLockedReq MSHR misses
system.cpu1.dcache.LoadLockedReq_mshr_misses::total         3292                       # number of LoadLockedReq MSHR misses
system.cpu1.dcache.LoadLockedReq_mshr_miss_latency::.cpu1.data     46318000                       # number of LoadLockedReq MSHR miss cycles
system.cpu1.dcache.LoadLockedReq_mshr_miss_latency::total     46318000                       # number of LoadLockedReq MSHR miss cycles
system.cpu1.dcache.LoadLockedReq_mshr_miss_rate::.cpu1.data     0.032006                       # mshr miss rate for LoadLockedReq accesses
system.cpu1.dcache.LoadLockedReq_mshr_miss_rate::total     0.032006                       # mshr miss rate for LoadLockedReq accesses
system.cpu1.dcache.LoadLockedReq_avg_mshr_miss_latency::.cpu1.data 14069.866343                       # average LoadLockedReq mshr miss latency
system.cpu1.dcache.LoadLockedReq_avg_mshr_miss_latency::total 14069.866343                       # average LoadLockedReq mshr miss latency
system.cpu1.dcache.StoreCondReq_hits::.cpu1.data        54487                       # number of StoreCondReq hits
system.cpu1.dcache.StoreCondReq_hits::total        54487                       # number of StoreCondReq hits
system.cpu1.dcache.StoreCondReq_misses::.cpu1.data        29664                       # number of StoreCondReq misses
system.cpu1.dcache.StoreCondReq_misses::total        29664                       # number of StoreCondReq misses
system.cpu1.dcache.StoreCondReq_miss_latency::.cpu1.data    322992000                       # number of StoreCondReq miss cycles
system.cpu1.dcache.StoreCondReq_miss_latency::total    322992000                       # number of StoreCondReq miss cycles
system.cpu1.dcache.StoreCondReq_accesses::.cpu1.data        84151                       # number of StoreCondReq accesses(hits+misses)
system.cpu1.dcache.StoreCondReq_accesses::total        84151                       # number of StoreCondReq accesses(hits+misses)
system.cpu1.dcache.StoreCondReq_miss_rate::.cpu1.data     0.352509                       # miss rate for StoreCondReq accesses
system.cpu1.dcache.StoreCondReq_miss_rate::total     0.352509                       # miss rate for StoreCondReq accesses
system.cpu1.dcache.StoreCondReq_avg_miss_latency::.cpu1.data 10888.349515                       # average StoreCondReq miss latency
system.cpu1.dcache.StoreCondReq_avg_miss_latency::total 10888.349515                       # average StoreCondReq miss latency
system.cpu1.dcache.StoreCondReq_mshr_misses::.cpu1.data        29663                       # number of StoreCondReq MSHR misses
system.cpu1.dcache.StoreCondReq_mshr_misses::total        29663                       # number of StoreCondReq MSHR misses
system.cpu1.dcache.StoreCondReq_mshr_miss_latency::.cpu1.data    293390000                       # number of StoreCondReq MSHR miss cycles
system.cpu1.dcache.StoreCondReq_mshr_miss_latency::total    293390000                       # number of StoreCondReq MSHR miss cycles
system.cpu1.dcache.StoreCondReq_mshr_miss_rate::.cpu1.data     0.352497                       # mshr miss rate for StoreCondReq accesses
system.cpu1.dcache.StoreCondReq_mshr_miss_rate::total     0.352497                       # mshr miss rate for StoreCondReq accesses
system.cpu1.dcache.StoreCondReq_avg_mshr_miss_latency::.cpu1.data  9890.773017                       # average StoreCondReq mshr miss latency
system.cpu1.dcache.StoreCondReq_avg_mshr_miss_latency::total  9890.773017                       # average StoreCondReq mshr miss latency
system.cpu1.dcache.StoreCondFailReq_miss_latency::.cpu1.data       432500                       # number of StoreCondFailReq miss cycles
system.cpu1.dcache.StoreCondFailReq_miss_latency::total       432500                       # number of StoreCondFailReq miss cycles
system.cpu1.dcache.StoreCondFailReq_avg_miss_latency::.cpu1.data          inf                       # average StoreCondFailReq miss latency
system.cpu1.dcache.StoreCondFailReq_avg_miss_latency::total          inf                       # average StoreCondFailReq miss latency
system.cpu1.dcache.StoreCondFailReq_mshr_miss_latency::.cpu1.data       371500                       # number of StoreCondFailReq MSHR miss cycles
system.cpu1.dcache.StoreCondFailReq_mshr_miss_latency::total       371500                       # number of StoreCondFailReq MSHR miss cycles
system.cpu1.dcache.StoreCondFailReq_avg_mshr_miss_latency::.cpu1.data          inf                       # average StoreCondFailReq mshr miss latency
system.cpu1.dcache.StoreCondFailReq_avg_mshr_miss_latency::total          inf                       # average StoreCondFailReq mshr miss latency
system.cpu1.dcache.SwapReq_hits::.cpu1.data        47386                       # number of SwapReq hits
system.cpu1.dcache.SwapReq_hits::total          47386                       # number of SwapReq hits
system.cpu1.dcache.SwapReq_misses::.cpu1.data        26853                       # number of SwapReq misses
system.cpu1.dcache.SwapReq_misses::total        26853                       # number of SwapReq misses
system.cpu1.dcache.SwapReq_miss_latency::.cpu1.data    133213999                       # number of SwapReq miss cycles
system.cpu1.dcache.SwapReq_miss_latency::total    133213999                       # number of SwapReq miss cycles
system.cpu1.dcache.SwapReq_accesses::.cpu1.data        74239                       # number of SwapReq accesses(hits+misses)
system.cpu1.dcache.SwapReq_accesses::total        74239                       # number of SwapReq accesses(hits+misses)
system.cpu1.dcache.SwapReq_miss_rate::.cpu1.data     0.361710                       # miss rate for SwapReq accesses
system.cpu1.dcache.SwapReq_miss_rate::total     0.361710                       # miss rate for SwapReq accesses
system.cpu1.dcache.SwapReq_avg_miss_latency::.cpu1.data  4960.860947                       # average SwapReq miss latency
system.cpu1.dcache.SwapReq_avg_miss_latency::total  4960.860947                       # average SwapReq miss latency
system.cpu1.dcache.SwapReq_mshr_hits::.cpu1.data            2                       # number of SwapReq MSHR hits
system.cpu1.dcache.SwapReq_mshr_hits::total            2                       # number of SwapReq MSHR hits
system.cpu1.dcache.SwapReq_mshr_misses::.cpu1.data        26851                       # number of SwapReq MSHR misses
system.cpu1.dcache.SwapReq_mshr_misses::total        26851                       # number of SwapReq MSHR misses
system.cpu1.dcache.SwapReq_mshr_miss_latency::.cpu1.data    106310499                       # number of SwapReq MSHR miss cycles
system.cpu1.dcache.SwapReq_mshr_miss_latency::total    106310499                       # number of SwapReq MSHR miss cycles
system.cpu1.dcache.SwapReq_mshr_miss_rate::.cpu1.data     0.361683                       # mshr miss rate for SwapReq accesses
system.cpu1.dcache.SwapReq_mshr_miss_rate::total     0.361683                       # mshr miss rate for SwapReq accesses
system.cpu1.dcache.SwapReq_avg_mshr_miss_latency::.cpu1.data  3959.275223                       # average SwapReq mshr miss latency
system.cpu1.dcache.SwapReq_avg_mshr_miss_latency::total  3959.275223                       # average SwapReq mshr miss latency
system.cpu1.dcache.tags.pwrStateResidencyTicks::UNDEFINED 205451581000                       # Cumulative time (in ticks) in various power states
system.cpu1.dcache.tags.tagsinuse           31.488942                       # Cycle average of tags in use
system.cpu1.dcache.tags.total_refs            9844395                       # Total number of references to valid blocks.
system.cpu1.dcache.tags.sampled_refs          1091100                       # Sample count of references to valid blocks.
system.cpu1.dcache.tags.avg_refs             9.022450                       # Average number of references to valid blocks.
system.cpu1.dcache.tags.warmup_cycle                0                       # Cycle when the warmup percentage was hit.
system.cpu1.dcache.tags.occ_blocks::.cpu1.data    31.488942                       # Average occupied blocks per requestor
system.cpu1.dcache.tags.occ_percent::.cpu1.data     0.984029                       # Average percentage of cache occupancy
system.cpu1.dcache.tags.occ_percent::total     0.984029                       # Average percentage of cache occupancy
system.cpu1.dcache.tags.occ_task_id_blocks::1024           32                       # Occupied blocks per task id
system.cpu1.dcache.tags.age_task_id_blocks_1024::1           32                       # Occupied blocks per task id
system.cpu1.dcache.tags.occ_task_id_percent::1024            1                       # Percentage of cache occupancy per task id
system.cpu1.dcache.tags.tag_accesses         26227239                       # Number of tag accesses
system.cpu1.dcache.tags.data_accesses        26227239                       # Number of data accesses
system.cpu_clk_domain.clock                       500                       # Clock period in ticks
system.tol2bus.pwrStateResidencyTicks::UNDEFINED 205451581000                       # Cumulative time (in ticks) in various power states
system.tol2bus.trans_dist::ReadResp           5112354                       # Transaction distribution
system.tol2bus.trans_dist::WritebackDirty      2347829                       # Transaction distribution
system.tol2bus.trans_dist::WritebackClean      4527111                       # Transaction distribution
system.tol2bus.trans_dist::CleanEvict        11557558                       # Transaction distribution
system.tol2bus.trans_dist::HardPFReq          9370131                       # Transaction distribution
system.tol2bus.trans_dist::HardPFResp              36                       # Transaction distribution
system.tol2bus.trans_dist::UpgradeReq          100446                       # Transaction distribution
system.tol2bus.trans_dist::SCUpgradeReq         49314                       # Transaction distribution
system.tol2bus.trans_dist::UpgradeResp         149760                       # Transaction distribution
system.tol2bus.trans_dist::SCUpgradeFailReq           67                       # Transaction distribution
system.tol2bus.trans_dist::UpgradeFailResp           67                       # Transaction distribution
system.tol2bus.trans_dist::ReadExReq           833331                       # Transaction distribution
system.tol2bus.trans_dist::ReadExResp          833332                       # Transaction distribution
system.tol2bus.trans_dist::ReadCleanReq       3390221                       # Transaction distribution
system.tol2bus.trans_dist::ReadSharedReq      1722134                       # Transaction distribution
system.tol2bus.trans_dist::InvalidateReq         3859                       # Transaction distribution
system.tol2bus.trans_dist::InvalidateResp         3859                       # Transaction distribution
system.tol2bus.pkt_count_system.cpu0.icache.mem_side::system.l2.cpu_side      3659381                       # Packet count per connected master and slave (bytes)
system.tol2bus.pkt_count_system.cpu0.dcache.mem_side::system.l2.cpu_side      4310657                       # Packet count per connected master and slave (bytes)
system.tol2bus.pkt_count_system.cpu1.icache.mem_side::system.l2.cpu_side      6511006                       # Packet count per connected master and slave (bytes)
system.tol2bus.pkt_count_system.cpu1.dcache.mem_side::system.l2.cpu_side      3156643                       # Packet count per connected master and slave (bytes)
system.tol2bus.pkt_count::total              17637687                       # Packet count per connected master and slave (bytes)
system.tol2bus.pkt_size_system.cpu0.icache.mem_side::system.l2.cpu_side    156129088                       # Cumulative packet size per connected master and slave (bytes)
system.tol2bus.pkt_size_system.cpu0.dcache.mem_side::system.l2.cpu_side    175476096                       # Cumulative packet size per connected master and slave (bytes)
system.tol2bus.pkt_size_system.cpu1.icache.mem_side::system.l2.cpu_side    277801536                       # Cumulative packet size per connected master and slave (bytes)
system.tol2bus.pkt_size_system.cpu1.dcache.mem_side::system.l2.cpu_side    126783808                       # Cumulative packet size per connected master and slave (bytes)
system.tol2bus.pkt_size::total              736190528                       # Cumulative packet size per connected master and slave (bytes)
system.tol2bus.snoops                        22363758                       # Total snoops (count)
system.tol2bus.snoopTraffic                  84338432                       # Total snoop traffic (bytes)
system.tol2bus.snoop_fanout::samples         28133623                       # Request fanout histogram
system.tol2bus.snoop_fanout::mean            0.239312                       # Request fanout histogram
system.tol2bus.snoop_fanout::stdev           0.471311                       # Request fanout histogram
system.tol2bus.snoop_fanout::underflows             0      0.00%      0.00% # Request fanout histogram
system.tol2bus.snoop_fanout::0               21964874     78.07%     78.07% # Request fanout histogram
system.tol2bus.snoop_fanout::1                5604777     19.92%     98.00% # Request fanout histogram
system.tol2bus.snoop_fanout::2                 563972      2.00%    100.00% # Request fanout histogram
system.tol2bus.snoop_fanout::3                      0      0.00%    100.00% # Request fanout histogram
system.tol2bus.snoop_fanout::4                      0      0.00%    100.00% # Request fanout histogram
system.tol2bus.snoop_fanout::5                      0      0.00%    100.00% # Request fanout histogram
system.tol2bus.snoop_fanout::6                      0      0.00%    100.00% # Request fanout histogram
system.tol2bus.snoop_fanout::7                      0      0.00%    100.00% # Request fanout histogram
system.tol2bus.snoop_fanout::8                      0      0.00%    100.00% # Request fanout histogram
system.tol2bus.snoop_fanout::overflows              0      0.00%    100.00% # Request fanout histogram
system.tol2bus.snoop_fanout::min_value              0                       # Request fanout histogram
system.tol2bus.snoop_fanout::max_value              2                       # Request fanout histogram
system.tol2bus.snoop_fanout::total           28133623                       # Request fanout histogram
system.tol2bus.reqLayer0.occupancy        11702448210                       # Layer occupancy (ticks)
system.tol2bus.reqLayer0.utilization              5.7                       # Layer utilization (%)
system.tol2bus.respLayer1.occupancy        2239581828                       # Layer occupancy (ticks)
system.tol2bus.respLayer1.utilization             1.1                       # Layer utilization (%)
system.tol2bus.respLayer0.occupancy        1832067947                       # Layer occupancy (ticks)
system.tol2bus.respLayer0.utilization             0.9                       # Layer utilization (%)
system.tol2bus.respLayer3.occupancy        1672593681                       # Layer occupancy (ticks)
system.tol2bus.respLayer3.utilization             0.8                       # Layer utilization (%)
system.tol2bus.respLayer2.occupancy        3256559448                       # Layer occupancy (ticks)
system.tol2bus.respLayer2.utilization             1.6                       # Layer utilization (%)
system.tol2bus.snoopLayer0.occupancy            54006                       # Layer occupancy (ticks)
system.tol2bus.snoopLayer0.utilization            0.0                       # Layer utilization (%)

---------- End Simulation Statistics   ----------
