
---------- Begin Simulation Statistics ----------
final_tick                               1070755724500                       # Number of ticks from beginning of simulation (restored from checkpoints and never reset)
host_inst_rate                                 105542                       # Simulator instruction rate (inst/s)
host_mem_usage                                 739332                       # Number of bytes of host memory used
host_op_rate                                   105850                       # Simulator op (including micro ops) rate (op/s)
host_seconds                                 13653.38                       # Real time elapsed on the host
host_tick_rate                               78424196                       # Simulator tick rate (ticks/s)
sim_freq                                 1000000000000                       # Frequency of simulated ticks
sim_insts                                  1441009033                       # Number of instructions simulated
sim_ops                                    1445214031                       # Number of ops (including micro ops) simulated
sim_seconds                                  1.070756                       # Number of seconds simulated
sim_ticks                                1070755724500                       # Number of ticks simulated
system.cpu0.branchPred.BTBCorrect                   0                       # Number of correct BTB predictions (this stat may not work properly.
system.cpu0.branchPred.BTBHitPct            88.012335                       # BTB Hit Percentage
system.cpu0.branchPred.BTBHits              173746424                       # Number of BTB hits
system.cpu0.branchPred.BTBLookups           197411446                       # Number of BTB lookups
system.cpu0.branchPred.RASInCorrect                 0                       # Number of incorrect RAS predictions.
system.cpu0.branchPred.condIncorrect         21106212                       # Number of conditional branches incorrect
system.cpu0.branchPred.condPredicted        258353587                       # Number of conditional branches predicted
system.cpu0.branchPred.indirectHits          21366115                       # Number of indirect target hits.
system.cpu0.branchPred.indirectLookups       22044950                       # Number of indirect predictor lookups.
system.cpu0.branchPred.indirectMisses          678835                       # Number of indirect misses.
system.cpu0.branchPred.lookups              331685377                       # Number of BP lookups
system.cpu0.branchPred.usedRAS                      0                       # Number of times the RAS was used to get a target.
system.cpu0.branchPredindirectMispredicted      2148570                       # Number of mispredicted indirect branches.
system.cpu0.commit.amos                       1050445                       # Number of atomic instructions committed
system.cpu0.commit.branchMispredicts         11151721                       # The number of times a branch was mispredicted
system.cpu0.commit.branches                 313655065                       # Number of branches committed
system.cpu0.commit.bw_lim_events             31711808                       # number cycles where commit BW limit reached
system.cpu0.commit.commitNonSpecStalls        3160582                       # The number of times commit has been forced to stall to communicate backwards
system.cpu0.commit.commitSquashedInsts       60240557                       # The number of squashed insts skipped by commit
system.cpu0.commit.committedInsts          1250518548                       # Number of instructions committed
system.cpu0.commit.committedOps            1251572293                       # Number of ops (including micro ops) committed
system.cpu0.commit.committed_per_cycle::samples   1958067773                       # Number of insts commited each cycle
system.cpu0.commit.committed_per_cycle::mean     0.639187                       # Number of insts commited each cycle
system.cpu0.commit.committed_per_cycle::stdev     1.367999                       # Number of insts commited each cycle
system.cpu0.commit.committed_per_cycle::underflows            0      0.00%      0.00% # Number of insts commited each cycle
system.cpu0.commit.committed_per_cycle::0   1341732144     68.52%     68.52% # Number of insts commited each cycle
system.cpu0.commit.committed_per_cycle::1    368587155     18.82%     87.35% # Number of insts commited each cycle
system.cpu0.commit.committed_per_cycle::2     88131626      4.50%     91.85% # Number of insts commited each cycle
system.cpu0.commit.committed_per_cycle::3     84377029      4.31%     96.16% # Number of insts commited each cycle
system.cpu0.commit.committed_per_cycle::4     27891675      1.42%     97.58% # Number of insts commited each cycle
system.cpu0.commit.committed_per_cycle::5      8234850      0.42%     98.00% # Number of insts commited each cycle
system.cpu0.commit.committed_per_cycle::6      4655017      0.24%     98.24% # Number of insts commited each cycle
system.cpu0.commit.committed_per_cycle::7      2746469      0.14%     98.38% # Number of insts commited each cycle
system.cpu0.commit.committed_per_cycle::8     31711808      1.62%    100.00% # Number of insts commited each cycle
system.cpu0.commit.committed_per_cycle::overflows            0      0.00%    100.00% # Number of insts commited each cycle
system.cpu0.commit.committed_per_cycle::min_value            0                       # Number of insts commited each cycle
system.cpu0.commit.committed_per_cycle::max_value            8                       # Number of insts commited each cycle
system.cpu0.commit.committed_per_cycle::total   1958067773                       # Number of insts commited each cycle
system.cpu0.commit.fp_insts                        50                       # Number of committed floating point instructions.
system.cpu0.commit.function_calls            24112791                       # Number of function calls committed.
system.cpu0.commit.int_insts               1209818593                       # Number of committed integer instructions.
system.cpu0.commit.loads                    388697371                       # Number of loads committed
system.cpu0.commit.membars                    2104070                       # Number of memory barriers committed
system.cpu0.commit.op_class_0::No_OpClass      2104076      0.17%      0.17% # Class of committed instruction
system.cpu0.commit.op_class_0::IntAlu       699530941     55.89%     56.06% # Class of committed instruction
system.cpu0.commit.op_class_0::IntMult       11833132      0.95%     57.01% # Class of committed instruction
system.cpu0.commit.op_class_0::IntDiv         2099835      0.17%     57.17% # Class of committed instruction
system.cpu0.commit.op_class_0::FloatAdd             0      0.00%     57.17% # Class of committed instruction
system.cpu0.commit.op_class_0::FloatCmp             4      0.00%     57.17% # Class of committed instruction
system.cpu0.commit.op_class_0::FloatCvt            12      0.00%     57.17% # Class of committed instruction
system.cpu0.commit.op_class_0::FloatMult            0      0.00%     57.17% # Class of committed instruction
system.cpu0.commit.op_class_0::FloatMultAcc            0      0.00%     57.17% # Class of committed instruction
system.cpu0.commit.op_class_0::FloatDiv             2      0.00%     57.17% # Class of committed instruction
system.cpu0.commit.op_class_0::FloatMisc            4      0.00%     57.17% # Class of committed instruction
system.cpu0.commit.op_class_0::FloatSqrt            0      0.00%     57.17% # Class of committed instruction
system.cpu0.commit.op_class_0::SimdAdd              0      0.00%     57.17% # Class of committed instruction
system.cpu0.commit.op_class_0::SimdAddAcc            0      0.00%     57.17% # Class of committed instruction
system.cpu0.commit.op_class_0::SimdAlu              0      0.00%     57.17% # Class of committed instruction
system.cpu0.commit.op_class_0::SimdCmp              0      0.00%     57.17% # Class of committed instruction
system.cpu0.commit.op_class_0::SimdCvt              0      0.00%     57.17% # Class of committed instruction
system.cpu0.commit.op_class_0::SimdMisc             0      0.00%     57.17% # Class of committed instruction
system.cpu0.commit.op_class_0::SimdMult             0      0.00%     57.17% # Class of committed instruction
system.cpu0.commit.op_class_0::SimdMultAcc            0      0.00%     57.17% # Class of committed instruction
system.cpu0.commit.op_class_0::SimdShift            0      0.00%     57.17% # Class of committed instruction
system.cpu0.commit.op_class_0::SimdShiftAcc            0      0.00%     57.17% # Class of committed instruction
system.cpu0.commit.op_class_0::SimdDiv              0      0.00%     57.17% # Class of committed instruction
system.cpu0.commit.op_class_0::SimdSqrt             0      0.00%     57.17% # Class of committed instruction
system.cpu0.commit.op_class_0::SimdFloatAdd            0      0.00%     57.17% # Class of committed instruction
system.cpu0.commit.op_class_0::SimdFloatAlu            0      0.00%     57.17% # Class of committed instruction
system.cpu0.commit.op_class_0::SimdFloatCmp            0      0.00%     57.17% # Class of committed instruction
system.cpu0.commit.op_class_0::SimdFloatCvt            0      0.00%     57.17% # Class of committed instruction
system.cpu0.commit.op_class_0::SimdFloatDiv            0      0.00%     57.17% # Class of committed instruction
system.cpu0.commit.op_class_0::SimdFloatMisc            0      0.00%     57.17% # Class of committed instruction
system.cpu0.commit.op_class_0::SimdFloatMult            0      0.00%     57.17% # Class of committed instruction
system.cpu0.commit.op_class_0::SimdFloatMultAcc            0      0.00%     57.17% # Class of committed instruction
system.cpu0.commit.op_class_0::SimdFloatSqrt            0      0.00%     57.17% # Class of committed instruction
system.cpu0.commit.op_class_0::SimdReduceAdd            0      0.00%     57.17% # Class of committed instruction
system.cpu0.commit.op_class_0::SimdReduceAlu            0      0.00%     57.17% # Class of committed instruction
system.cpu0.commit.op_class_0::SimdReduceCmp            0      0.00%     57.17% # Class of committed instruction
system.cpu0.commit.op_class_0::SimdFloatReduceAdd            0      0.00%     57.17% # Class of committed instruction
system.cpu0.commit.op_class_0::SimdFloatReduceCmp            0      0.00%     57.17% # Class of committed instruction
system.cpu0.commit.op_class_0::SimdAes              0      0.00%     57.17% # Class of committed instruction
system.cpu0.commit.op_class_0::SimdAesMix            0      0.00%     57.17% # Class of committed instruction
system.cpu0.commit.op_class_0::SimdSha1Hash            0      0.00%     57.17% # Class of committed instruction
system.cpu0.commit.op_class_0::SimdSha1Hash2            0      0.00%     57.17% # Class of committed instruction
system.cpu0.commit.op_class_0::SimdSha256Hash            0      0.00%     57.17% # Class of committed instruction
system.cpu0.commit.op_class_0::SimdSha256Hash2            0      0.00%     57.17% # Class of committed instruction
system.cpu0.commit.op_class_0::SimdShaSigma2            0      0.00%     57.17% # Class of committed instruction
system.cpu0.commit.op_class_0::SimdShaSigma3            0      0.00%     57.17% # Class of committed instruction
system.cpu0.commit.op_class_0::SimdPredAlu            0      0.00%     57.17% # Class of committed instruction
system.cpu0.commit.op_class_0::MemRead      389747808     31.14%     88.31% # Class of committed instruction
system.cpu0.commit.op_class_0::MemWrite     146256451     11.69%    100.00% # Class of committed instruction
system.cpu0.commit.op_class_0::FloatMemRead            8      0.00%    100.00% # Class of committed instruction
system.cpu0.commit.op_class_0::FloatMemWrite           20      0.00%    100.00% # Class of committed instruction
system.cpu0.commit.op_class_0::IprAccess            0      0.00%    100.00% # Class of committed instruction
system.cpu0.commit.op_class_0::InstPrefetch            0      0.00%    100.00% # Class of committed instruction
system.cpu0.commit.op_class_0::total       1251572293                       # Class of committed instruction
system.cpu0.commit.refs                     536004287                       # Number of memory references committed
system.cpu0.commit.swp_count                        0                       # Number of s/w prefetches committed
system.cpu0.commit.vec_insts                        0                       # Number of committed Vector instructions.
system.cpu0.committedInsts                 1250518548                       # Number of Instructions Simulated
system.cpu0.committedOps                   1251572293                       # Number of Ops (including micro ops) Simulated
system.cpu0.cpi                              1.704588                       # CPI: Cycles Per Instruction
system.cpu0.cpi_total                        1.704588                       # CPI: Total CPI of All Threads
system.cpu0.decode.BlockedCycles            251713443                       # Number of cycles decode is blocked
system.cpu0.decode.BranchMispred              9976496                       # Number of times decode detected a branch misprediction
system.cpu0.decode.BranchResolved           170508057                       # Number of times decode resolved a branch
system.cpu0.decode.DecodedInsts            1336407295                       # Number of instructions handled by decode
system.cpu0.decode.IdleCycles               770140366                       # Number of cycles decode is idle
system.cpu0.decode.RunCycles                938057640                       # Number of cycles decode is running
system.cpu0.decode.SquashCycles              11159731                       # Number of cycles decode is squashing
system.cpu0.decode.SquashedInsts             12996400                       # Number of squashed instructions handled by decode
system.cpu0.decode.UnblockCycles              3449117                       # Number of cycles decode is unblocking
system.cpu0.dtb.accesses                            0                       # DTB accesses
system.cpu0.dtb.hits                                0                       # DTB hits
system.cpu0.dtb.misses                              0                       # DTB misses
system.cpu0.dtb.read_accesses                       0                       # DTB read accesses
system.cpu0.dtb.read_hits                           0                       # DTB read hits
system.cpu0.dtb.read_misses                         0                       # DTB read misses
system.cpu0.dtb.write_accesses                      0                       # DTB write accesses
system.cpu0.dtb.write_hits                          0                       # DTB write hits
system.cpu0.dtb.write_misses                        0                       # DTB write misses
system.cpu0.fetch.Branches                  331685377                       # Number of branches that fetch encountered
system.cpu0.fetch.CacheLines                238012794                       # Number of cache lines fetched
system.cpu0.fetch.Cycles                   1207956718                       # Number of cycles fetch has run and was not squashing or blocked
system.cpu0.fetch.IcacheSquashes              6561134                       # Number of outstanding Icache misses that were squashed
system.cpu0.fetch.IcacheWaitRetryStallCycles         1456                       # Number of stall cycles due to full MSHR
system.cpu0.fetch.Insts                    1360317366                       # Number of instructions fetch has processed
system.cpu0.fetch.MiscStallCycles                 231                       # Number of cycles fetch has spent waiting on interrupts, or bad addresses, or out of MSHRs
system.cpu0.fetch.PendingTrapStallCycles          446                       # Number of stall cycles due to pending traps
system.cpu0.fetch.SquashCycles               42228586                       # Number of cycles fetch has spent squashing
system.cpu0.fetch.branchRate                 0.155603                       # Number of branch fetches per cycle
system.cpu0.fetch.icacheStallCycles         745447153                       # Number of cycles fetch is stalled on an Icache miss
system.cpu0.fetch.predictedBranches         195112539                       # Number of branches that fetch has predicted taken
system.cpu0.fetch.rate                       0.638162                       # Number of inst fetches per cycle
system.cpu0.fetch.rateDist::samples        1974520297                       # Number of instructions fetched each cycle (Total)
system.cpu0.fetch.rateDist::mean             0.689469                       # Number of instructions fetched each cycle (Total)
system.cpu0.fetch.rateDist::stdev            0.906971                       # Number of instructions fetched each cycle (Total)
system.cpu0.fetch.rateDist::underflows              0      0.00%      0.00% # Number of instructions fetched each cycle (Total)
system.cpu0.fetch.rateDist::0              1006696310     50.98%     50.98% # Number of instructions fetched each cycle (Total)
system.cpu0.fetch.rateDist::1               724527774     36.69%     87.68% # Number of instructions fetched each cycle (Total)
system.cpu0.fetch.rateDist::2               125683214      6.37%     94.04% # Number of instructions fetched each cycle (Total)
system.cpu0.fetch.rateDist::3                96388294      4.88%     98.93% # Number of instructions fetched each cycle (Total)
system.cpu0.fetch.rateDist::4                16390056      0.83%     99.76% # Number of instructions fetched each cycle (Total)
system.cpu0.fetch.rateDist::5                 2464148      0.12%     99.88% # Number of instructions fetched each cycle (Total)
system.cpu0.fetch.rateDist::6                  266032      0.01%     99.89% # Number of instructions fetched each cycle (Total)
system.cpu0.fetch.rateDist::7                     486      0.00%     99.89% # Number of instructions fetched each cycle (Total)
system.cpu0.fetch.rateDist::8                 2103983      0.11%    100.00% # Number of instructions fetched each cycle (Total)
system.cpu0.fetch.rateDist::overflows               0      0.00%    100.00% # Number of instructions fetched each cycle (Total)
system.cpu0.fetch.rateDist::min_value               0                       # Number of instructions fetched each cycle (Total)
system.cpu0.fetch.rateDist::max_value               8                       # Number of instructions fetched each cycle (Total)
system.cpu0.fetch.rateDist::total          1974520297                       # Number of instructions fetched each cycle (Total)
system.cpu0.fp_regfile_reads                       44                       # number of floating regfile reads
system.cpu0.fp_regfile_writes                      22                       # number of floating regfile writes
system.cpu0.idleCycles                      157098896                       # Total number of cycles that the CPU has spent unscheduled due to idling
system.cpu0.iew.branchMispredicts            11212584                       # Number of branch mispredicts detected at execute
system.cpu0.iew.exec_branches               318838390                       # Number of branches executed
system.cpu0.iew.exec_nop                            0                       # number of nop insts executed
system.cpu0.iew.exec_rate                    0.610595                       # Inst execution rate
system.cpu0.iew.exec_refs                   573647468                       # number of memory reference insts executed
system.cpu0.iew.exec_stores                 149819336                       # Number of stores executed
system.cpu0.iew.exec_swp                            0                       # number of swp insts executed
system.cpu0.iew.iewBlockCycles              209306248                       # Number of cycles IEW is blocking
system.cpu0.iew.iewDispLoadInsts            423438223                       # Number of dispatched load instructions
system.cpu0.iew.iewDispNonSpecInsts           1056735                       # Number of dispatched non-speculative instructions
system.cpu0.iew.iewDispSquashedInsts          6271386                       # Number of squashed instructions skipped by dispatch
system.cpu0.iew.iewDispStoreInsts           150321383                       # Number of dispatched store instructions
system.cpu0.iew.iewDispatchedInsts         1311786120                       # Number of instructions dispatched to IQ
system.cpu0.iew.iewExecLoadInsts            423828132                       # Number of load instructions executed
system.cpu0.iew.iewExecSquashedInsts         10899034                       # Number of squashed instructions skipped in execute
system.cpu0.iew.iewExecutedInsts           1301555824                       # Number of executed instructions
system.cpu0.iew.iewIQFullEvents               1079988                       # Number of times the IQ has become full, causing a stall
system.cpu0.iew.iewIdleCycles                       0                       # Number of cycles IEW is idle
system.cpu0.iew.iewLSQFullEvents              4349953                       # Number of times the LSQ has become full, causing a stall
system.cpu0.iew.iewSquashCycles              11159731                       # Number of cycles IEW is squashing
system.cpu0.iew.iewUnblockCycles              6615917                       # Number of cycles IEW is unblocking
system.cpu0.iew.lsq.thread0.blockedLoads            0                       # Number of blocked loads due to partial load-store forwarding
system.cpu0.iew.lsq.thread0.cacheBlocked       158422                       # Number of times an access to memory failed due to the cache being blocked
system.cpu0.iew.lsq.thread0.forwLoads        20843136                       # Number of loads that had data forwarded from stores
system.cpu0.iew.lsq.thread0.ignoredResponses        27196                       # Number of memory responses ignored because the instruction is squashed
system.cpu0.iew.lsq.thread0.invAddrLoads            0                       # Number of loads ignored due to an invalid address
system.cpu0.iew.lsq.thread0.invAddrSwpfs            0                       # Number of software prefetches ignored due to an invalid address
system.cpu0.iew.lsq.thread0.memOrderViolation         6820                       # Number of memory ordering violations
system.cpu0.iew.lsq.thread0.rescheduledLoads      4386251                       # Number of loads that were rescheduled
system.cpu0.iew.lsq.thread0.squashedLoads     34740852                       # Number of loads squashed
system.cpu0.iew.lsq.thread0.squashedStores      3014467                       # Number of stores squashed
system.cpu0.iew.memOrderViolationEvents          6820                       # Number of memory order violations
system.cpu0.iew.predictedNotTakenIncorrect       392741                       # Number of branches that were predicted not taken incorrectly
system.cpu0.iew.predictedTakenIncorrect      10819843                       # Number of branches that were predicted taken incorrectly
system.cpu0.iew.wb_consumers                586834923                       # num instructions consuming a value
system.cpu0.iew.wb_count                   1289456281                       # cumulative count of insts written-back
system.cpu0.iew.wb_fanout                    0.842914                       # average fanout of values written-back
system.cpu0.iew.wb_producers                494651179                       # num instructions producing a value
system.cpu0.iew.wb_rate                      0.604919                       # insts written-back per cycle
system.cpu0.iew.wb_sent                    1289496537                       # cumulative count of insts sent to commit
system.cpu0.int_regfile_reads              1593466848                       # number of integer regfile reads
system.cpu0.int_regfile_writes              830895400                       # number of integer regfile writes
system.cpu0.ipc                              0.586652                       # IPC: Instructions Per Cycle
system.cpu0.ipc_total                        0.586652                       # IPC: Total IPC of All Threads
system.cpu0.iq.FU_type_0::No_OpClass          2106168      0.16%      0.16% # Type of FU issued
system.cpu0.iq.FU_type_0::IntAlu            718856983     54.77%     54.93% # Type of FU issued
system.cpu0.iq.FU_type_0::IntMult            11848834      0.90%     55.84% # Type of FU issued
system.cpu0.iq.FU_type_0::IntDiv              2100408      0.16%     56.00% # Type of FU issued
system.cpu0.iq.FU_type_0::FloatAdd                  0      0.00%     56.00% # Type of FU issued
system.cpu0.iq.FU_type_0::FloatCmp                  4      0.00%     56.00% # Type of FU issued
system.cpu0.iq.FU_type_0::FloatCvt                 12      0.00%     56.00% # Type of FU issued
system.cpu0.iq.FU_type_0::FloatMult                 0      0.00%     56.00% # Type of FU issued
system.cpu0.iq.FU_type_0::FloatMultAcc              0      0.00%     56.00% # Type of FU issued
system.cpu0.iq.FU_type_0::FloatDiv                  2      0.00%     56.00% # Type of FU issued
system.cpu0.iq.FU_type_0::FloatMisc                 4      0.00%     56.00% # Type of FU issued
system.cpu0.iq.FU_type_0::FloatSqrt                 0      0.00%     56.00% # Type of FU issued
system.cpu0.iq.FU_type_0::SimdAdd                   0      0.00%     56.00% # Type of FU issued
system.cpu0.iq.FU_type_0::SimdAddAcc                0      0.00%     56.00% # Type of FU issued
system.cpu0.iq.FU_type_0::SimdAlu                   0      0.00%     56.00% # Type of FU issued
system.cpu0.iq.FU_type_0::SimdCmp                   0      0.00%     56.00% # Type of FU issued
system.cpu0.iq.FU_type_0::SimdCvt                   0      0.00%     56.00% # Type of FU issued
system.cpu0.iq.FU_type_0::SimdMisc                  0      0.00%     56.00% # Type of FU issued
system.cpu0.iq.FU_type_0::SimdMult                  0      0.00%     56.00% # Type of FU issued
system.cpu0.iq.FU_type_0::SimdMultAcc               0      0.00%     56.00% # Type of FU issued
system.cpu0.iq.FU_type_0::SimdShift                 0      0.00%     56.00% # Type of FU issued
system.cpu0.iq.FU_type_0::SimdShiftAcc              0      0.00%     56.00% # Type of FU issued
system.cpu0.iq.FU_type_0::SimdDiv                   0      0.00%     56.00% # Type of FU issued
system.cpu0.iq.FU_type_0::SimdSqrt                  0      0.00%     56.00% # Type of FU issued
system.cpu0.iq.FU_type_0::SimdFloatAdd              0      0.00%     56.00% # Type of FU issued
system.cpu0.iq.FU_type_0::SimdFloatAlu              0      0.00%     56.00% # Type of FU issued
system.cpu0.iq.FU_type_0::SimdFloatCmp              0      0.00%     56.00% # Type of FU issued
system.cpu0.iq.FU_type_0::SimdFloatCvt              0      0.00%     56.00% # Type of FU issued
system.cpu0.iq.FU_type_0::SimdFloatDiv              0      0.00%     56.00% # Type of FU issued
system.cpu0.iq.FU_type_0::SimdFloatMisc             0      0.00%     56.00% # Type of FU issued
system.cpu0.iq.FU_type_0::SimdFloatMult             0      0.00%     56.00% # Type of FU issued
system.cpu0.iq.FU_type_0::SimdFloatMultAcc            0      0.00%     56.00% # Type of FU issued
system.cpu0.iq.FU_type_0::SimdFloatSqrt             0      0.00%     56.00% # Type of FU issued
system.cpu0.iq.FU_type_0::SimdReduceAdd             0      0.00%     56.00% # Type of FU issued
system.cpu0.iq.FU_type_0::SimdReduceAlu             0      0.00%     56.00% # Type of FU issued
system.cpu0.iq.FU_type_0::SimdReduceCmp             0      0.00%     56.00% # Type of FU issued
system.cpu0.iq.FU_type_0::SimdFloatReduceAdd            0      0.00%     56.00% # Type of FU issued
system.cpu0.iq.FU_type_0::SimdFloatReduceCmp            0      0.00%     56.00% # Type of FU issued
system.cpu0.iq.FU_type_0::SimdAes                   0      0.00%     56.00% # Type of FU issued
system.cpu0.iq.FU_type_0::SimdAesMix                0      0.00%     56.00% # Type of FU issued
system.cpu0.iq.FU_type_0::SimdSha1Hash              0      0.00%     56.00% # Type of FU issued
system.cpu0.iq.FU_type_0::SimdSha1Hash2             0      0.00%     56.00% # Type of FU issued
system.cpu0.iq.FU_type_0::SimdSha256Hash            0      0.00%     56.00% # Type of FU issued
system.cpu0.iq.FU_type_0::SimdSha256Hash2            0      0.00%     56.00% # Type of FU issued
system.cpu0.iq.FU_type_0::SimdShaSigma2             0      0.00%     56.00% # Type of FU issued
system.cpu0.iq.FU_type_0::SimdShaSigma3             0      0.00%     56.00% # Type of FU issued
system.cpu0.iq.FU_type_0::SimdPredAlu               0      0.00%     56.00% # Type of FU issued
system.cpu0.iq.FU_type_0::MemRead           428508381     32.65%     88.64% # Type of FU issued
system.cpu0.iq.FU_type_0::MemWrite          149034034     11.36%    100.00% # Type of FU issued
system.cpu0.iq.FU_type_0::FloatMemRead              8      0.00%    100.00% # Type of FU issued
system.cpu0.iq.FU_type_0::FloatMemWrite            20      0.00%    100.00% # Type of FU issued
system.cpu0.iq.FU_type_0::IprAccess                 0      0.00%    100.00% # Type of FU issued
system.cpu0.iq.FU_type_0::InstPrefetch              0      0.00%    100.00% # Type of FU issued
system.cpu0.iq.FU_type_0::total            1312454858                       # Type of FU issued
system.cpu0.iq.fp_alu_accesses                     54                       # Number of floating point alu accesses
system.cpu0.iq.fp_inst_queue_reads                104                       # Number of floating instruction queue reads
system.cpu0.iq.fp_inst_queue_wakeup_accesses           50                       # Number of floating instruction queue wakeup accesses
system.cpu0.iq.fp_inst_queue_writes                50                       # Number of floating instruction queue writes
system.cpu0.iq.fu_busy_cnt                    1429243                       # FU busy when requested
system.cpu0.iq.fu_busy_rate                  0.001089                       # FU busy rate (busy events/executed inst)
system.cpu0.iq.fu_full::No_OpClass                  0      0.00%      0.00% # attempts to use FU when none available
system.cpu0.iq.fu_full::IntAlu                 210783     14.75%     14.75% # attempts to use FU when none available
system.cpu0.iq.fu_full::IntMult                     9      0.00%     14.75% # attempts to use FU when none available
system.cpu0.iq.fu_full::IntDiv                      0      0.00%     14.75% # attempts to use FU when none available
system.cpu0.iq.fu_full::FloatAdd                    0      0.00%     14.75% # attempts to use FU when none available
system.cpu0.iq.fu_full::FloatCmp                    0      0.00%     14.75% # attempts to use FU when none available
system.cpu0.iq.fu_full::FloatCvt                    0      0.00%     14.75% # attempts to use FU when none available
system.cpu0.iq.fu_full::FloatMult                   0      0.00%     14.75% # attempts to use FU when none available
system.cpu0.iq.fu_full::FloatMultAcc                0      0.00%     14.75% # attempts to use FU when none available
system.cpu0.iq.fu_full::FloatDiv                    0      0.00%     14.75% # attempts to use FU when none available
system.cpu0.iq.fu_full::FloatMisc                   0      0.00%     14.75% # attempts to use FU when none available
system.cpu0.iq.fu_full::FloatSqrt                   0      0.00%     14.75% # attempts to use FU when none available
system.cpu0.iq.fu_full::SimdAdd                     0      0.00%     14.75% # attempts to use FU when none available
system.cpu0.iq.fu_full::SimdAddAcc                  0      0.00%     14.75% # attempts to use FU when none available
system.cpu0.iq.fu_full::SimdAlu                     0      0.00%     14.75% # attempts to use FU when none available
system.cpu0.iq.fu_full::SimdCmp                     0      0.00%     14.75% # attempts to use FU when none available
system.cpu0.iq.fu_full::SimdCvt                     0      0.00%     14.75% # attempts to use FU when none available
system.cpu0.iq.fu_full::SimdMisc                    0      0.00%     14.75% # attempts to use FU when none available
system.cpu0.iq.fu_full::SimdMult                    0      0.00%     14.75% # attempts to use FU when none available
system.cpu0.iq.fu_full::SimdMultAcc                 0      0.00%     14.75% # attempts to use FU when none available
system.cpu0.iq.fu_full::SimdShift                   0      0.00%     14.75% # attempts to use FU when none available
system.cpu0.iq.fu_full::SimdShiftAcc                0      0.00%     14.75% # attempts to use FU when none available
system.cpu0.iq.fu_full::SimdDiv                     0      0.00%     14.75% # attempts to use FU when none available
system.cpu0.iq.fu_full::SimdSqrt                    0      0.00%     14.75% # attempts to use FU when none available
system.cpu0.iq.fu_full::SimdFloatAdd                0      0.00%     14.75% # attempts to use FU when none available
system.cpu0.iq.fu_full::SimdFloatAlu                0      0.00%     14.75% # attempts to use FU when none available
system.cpu0.iq.fu_full::SimdFloatCmp                0      0.00%     14.75% # attempts to use FU when none available
system.cpu0.iq.fu_full::SimdFloatCvt                0      0.00%     14.75% # attempts to use FU when none available
system.cpu0.iq.fu_full::SimdFloatDiv                0      0.00%     14.75% # attempts to use FU when none available
system.cpu0.iq.fu_full::SimdFloatMisc               0      0.00%     14.75% # attempts to use FU when none available
system.cpu0.iq.fu_full::SimdFloatMult               0      0.00%     14.75% # attempts to use FU when none available
system.cpu0.iq.fu_full::SimdFloatMultAcc            0      0.00%     14.75% # attempts to use FU when none available
system.cpu0.iq.fu_full::SimdFloatSqrt               0      0.00%     14.75% # attempts to use FU when none available
system.cpu0.iq.fu_full::SimdReduceAdd               0      0.00%     14.75% # attempts to use FU when none available
system.cpu0.iq.fu_full::SimdReduceAlu               0      0.00%     14.75% # attempts to use FU when none available
system.cpu0.iq.fu_full::SimdReduceCmp               0      0.00%     14.75% # attempts to use FU when none available
system.cpu0.iq.fu_full::SimdFloatReduceAdd            0      0.00%     14.75% # attempts to use FU when none available
system.cpu0.iq.fu_full::SimdFloatReduceCmp            0      0.00%     14.75% # attempts to use FU when none available
system.cpu0.iq.fu_full::SimdAes                     0      0.00%     14.75% # attempts to use FU when none available
system.cpu0.iq.fu_full::SimdAesMix                  0      0.00%     14.75% # attempts to use FU when none available
system.cpu0.iq.fu_full::SimdSha1Hash                0      0.00%     14.75% # attempts to use FU when none available
system.cpu0.iq.fu_full::SimdSha1Hash2               0      0.00%     14.75% # attempts to use FU when none available
system.cpu0.iq.fu_full::SimdSha256Hash              0      0.00%     14.75% # attempts to use FU when none available
system.cpu0.iq.fu_full::SimdSha256Hash2             0      0.00%     14.75% # attempts to use FU when none available
system.cpu0.iq.fu_full::SimdShaSigma2               0      0.00%     14.75% # attempts to use FU when none available
system.cpu0.iq.fu_full::SimdShaSigma3               0      0.00%     14.75% # attempts to use FU when none available
system.cpu0.iq.fu_full::SimdPredAlu                 0      0.00%     14.75% # attempts to use FU when none available
system.cpu0.iq.fu_full::MemRead               1001726     70.09%     84.84% # attempts to use FU when none available
system.cpu0.iq.fu_full::MemWrite               216721     15.16%    100.00% # attempts to use FU when none available
system.cpu0.iq.fu_full::FloatMemRead                0      0.00%    100.00% # attempts to use FU when none available
system.cpu0.iq.fu_full::FloatMemWrite               4      0.00%    100.00% # attempts to use FU when none available
system.cpu0.iq.fu_full::IprAccess                   0      0.00%    100.00% # attempts to use FU when none available
system.cpu0.iq.fu_full::InstPrefetch                0      0.00%    100.00% # attempts to use FU when none available
system.cpu0.iq.int_alu_accesses            1311777879                       # Number of integer alu accesses
system.cpu0.iq.int_inst_queue_reads        4600927947                       # Number of integer instruction queue reads
system.cpu0.iq.int_inst_queue_wakeup_accesses   1289456231                       # Number of integer instruction queue wakeup accesses
system.cpu0.iq.int_inst_queue_writes       1372006502                       # Number of integer instruction queue writes
system.cpu0.iq.iqInstsAdded                1308625160                       # Number of instructions added to the IQ (excludes non-spec)
system.cpu0.iq.iqInstsIssued               1312454858                       # Number of instructions issued
system.cpu0.iq.iqNonSpecInstsAdded            3160960                       # Number of non-speculative instructions added to the IQ
system.cpu0.iq.iqSquashedInstsExamined       60213824                       # Number of squashed instructions iterated over during squash; mainly for profiling
system.cpu0.iq.iqSquashedInstsIssued            68795                       # Number of squashed instructions issued
system.cpu0.iq.iqSquashedNonSpecRemoved           378                       # Number of squashed non-spec instructions that were removed
system.cpu0.iq.iqSquashedOperandsExamined     17858129                       # Number of squashed operands that are examined and possibly removed from graph
system.cpu0.iq.issued_per_cycle::samples   1974520297                       # Number of insts issued each cycle
system.cpu0.iq.issued_per_cycle::mean        0.664696                       # Number of insts issued each cycle
system.cpu0.iq.issued_per_cycle::stdev       0.857535                       # Number of insts issued each cycle
system.cpu0.iq.issued_per_cycle::underflows            0      0.00%      0.00% # Number of insts issued each cycle
system.cpu0.iq.issued_per_cycle::0         1054310843     53.40%     53.40% # Number of insts issued each cycle
system.cpu0.iq.issued_per_cycle::1          624403107     31.62%     85.02% # Number of insts issued each cycle
system.cpu0.iq.issued_per_cycle::2          211785328     10.73%     95.74% # Number of insts issued each cycle
system.cpu0.iq.issued_per_cycle::3           74577411      3.78%     99.52% # Number of insts issued each cycle
system.cpu0.iq.issued_per_cycle::4            7836416      0.40%     99.92% # Number of insts issued each cycle
system.cpu0.iq.issued_per_cycle::5             640889      0.03%     99.95% # Number of insts issued each cycle
system.cpu0.iq.issued_per_cycle::6             682315      0.03%     99.99% # Number of insts issued each cycle
system.cpu0.iq.issued_per_cycle::7             167041      0.01%     99.99% # Number of insts issued each cycle
system.cpu0.iq.issued_per_cycle::8             116947      0.01%    100.00% # Number of insts issued each cycle
system.cpu0.iq.issued_per_cycle::overflows            0      0.00%    100.00% # Number of insts issued each cycle
system.cpu0.iq.issued_per_cycle::min_value            0                       # Number of insts issued each cycle
system.cpu0.iq.issued_per_cycle::max_value            8                       # Number of insts issued each cycle
system.cpu0.iq.issued_per_cycle::total     1974520297                       # Number of insts issued each cycle
system.cpu0.iq.rate                          0.615708                       # Inst issue rate
system.cpu0.iq.vec_alu_accesses                     0                       # Number of vector alu accesses
system.cpu0.iq.vec_inst_queue_reads                 0                       # Number of vector instruction queue reads
system.cpu0.iq.vec_inst_queue_wakeup_accesses            0                       # Number of vector instruction queue wakeup accesses
system.cpu0.iq.vec_inst_queue_writes                0                       # Number of vector instruction queue writes
system.cpu0.itb.accesses                            0                       # DTB accesses
system.cpu0.itb.hits                                0                       # DTB hits
system.cpu0.itb.misses                              0                       # DTB misses
system.cpu0.itb.read_accesses                       0                       # DTB read accesses
system.cpu0.itb.read_hits                           0                       # DTB read hits
system.cpu0.itb.read_misses                         0                       # DTB read misses
system.cpu0.itb.write_accesses                      0                       # DTB write accesses
system.cpu0.itb.write_hits                          0                       # DTB write hits
system.cpu0.itb.write_misses                        0                       # DTB write misses
system.cpu0.memDep0.conflictingLoads         10797770                       # Number of conflicting loads.
system.cpu0.memDep0.conflictingStores         2254634                       # Number of conflicting stores.
system.cpu0.memDep0.insertedLoads           423438223                       # Number of loads inserted to the mem dependence unit.
system.cpu0.memDep0.insertedStores          150321383                       # Number of stores inserted to the mem dependence unit.
system.cpu0.misc_regfile_reads                   2052                       # number of misc regfile reads
system.cpu0.misc_regfile_writes                    22                       # number of misc regfile writes
system.cpu0.numCycles                      2131619193                       # number of cpu cycles simulated
system.cpu0.numWorkItemsCompleted                   0                       # number of work items this cpu completed
system.cpu0.numWorkItemsStarted                     0                       # number of work items this cpu started
system.cpu0.quiesceCycles                     9892271                       # Total number of cycles that CPU has spent quiesced or waiting for an interrupt
system.cpu0.rename.BlockCycles              223930451                       # Number of cycles rename is blocking
system.cpu0.rename.CommittedMaps            800543770                       # Number of HB maps that are committed
system.cpu0.rename.IQFullEvents               7253504                       # Number of times rename has blocked due to IQ full
system.cpu0.rename.IdleCycles               781869807                       # Number of cycles rename is idle
system.cpu0.rename.LQFullEvents               7259966                       # Number of times rename has blocked due to LQ full
system.cpu0.rename.ROBFullEvents                11534                       # Number of times rename has blocked due to ROB full
system.cpu0.rename.RenameLookups           1624445735                       # Number of register rename lookups that rename has made
system.cpu0.rename.RenamedInsts            1330494188                       # Number of instructions processed by rename
system.cpu0.rename.RenamedOperands          867544358                       # Number of destination operands rename has renamed
system.cpu0.rename.RunCycles                929110850                       # Number of cycles rename is running
system.cpu0.rename.SQFullEvents              13424693                       # Number of times rename has blocked due to SQ full
system.cpu0.rename.SquashCycles              11159731                       # Number of cycles rename is squashing
system.cpu0.rename.UnblockCycles             28276086                       # Number of cycles rename is unblocking
system.cpu0.rename.UndoneMaps                67000584                       # Number of HB maps that are undone due to squashing
system.cpu0.rename.fp_rename_lookups               44                       # Number of floating rename lookups
system.cpu0.rename.int_rename_lookups      1624445691                       # Number of integer rename lookups
system.cpu0.rename.serializeStallCycles        173372                       # count of cycles rename stalled for serializing inst
system.cpu0.rename.serializingInsts              6214                       # count of serializing insts renamed
system.cpu0.rename.skidInsts                 16147939                       # count of insts added to the skid buffer
system.cpu0.rename.tempSerializingInsts          6203                       # count of temporary serializing insts renamed
system.cpu0.rob.rob_reads                  3238142724                       # The number of ROB reads
system.cpu0.rob.rob_writes                 2640087382                       # The number of ROB writes
system.cpu0.timesIdled                       23199225                       # Number of times that the entire CPU went into an idle state and unscheduled itself
system.cpu0.workload.numSyscalls                 2019                       # Number of system calls
system.cpu1.branchPred.BTBCorrect                   0                       # Number of correct BTB predictions (this stat may not work properly.
system.cpu1.branchPred.BTBHitPct            88.208480                       # BTB Hit Percentage
system.cpu1.branchPred.BTBHits               11867374                       # Number of BTB hits
system.cpu1.branchPred.BTBLookups            13453779                       # Number of BTB lookups
system.cpu1.branchPred.RASInCorrect                 0                       # Number of incorrect RAS predictions.
system.cpu1.branchPred.condIncorrect          1758043                       # Number of conditional branches incorrect
system.cpu1.branchPred.condPredicted         17350633                       # Number of conditional branches predicted
system.cpu1.branchPred.indirectHits            640711                       # Number of indirect target hits.
system.cpu1.branchPred.indirectLookups         649833                       # Number of indirect predictor lookups.
system.cpu1.branchPred.indirectMisses            9122                       # Number of indirect misses.
system.cpu1.branchPred.lookups               20234129                       # Number of BP lookups
system.cpu1.branchPred.usedRAS                      0                       # Number of times the RAS was used to get a target.
system.cpu1.branchPredindirectMispredicted        41563                       # Number of mispredicted indirect branches.
system.cpu1.commit.amos                       1050195                       # Number of atomic instructions committed
system.cpu1.commit.branchMispredicts          1298786                       # The number of times a branch was mispredicted
system.cpu1.commit.branches                  16232556                       # Number of branches committed
system.cpu1.commit.bw_lim_events              1611491                       # number cycles where commit BW limit reached
system.cpu1.commit.commitNonSpecStalls        3151322                       # The number of times commit has been forced to stall to communicate backwards
system.cpu1.commit.commitSquashedInsts        9045141                       # The number of squashed insts skipped by commit
system.cpu1.commit.committedInsts            67699946                       # Number of instructions committed
system.cpu1.commit.committedOps              68750346                       # Number of ops (including micro ops) committed
system.cpu1.commit.committed_per_cycle::samples    284591221                       # Number of insts commited each cycle
system.cpu1.commit.committed_per_cycle::mean     0.241576                       # Number of insts commited each cycle
system.cpu1.commit.committed_per_cycle::stdev     0.936994                       # Number of insts commited each cycle
system.cpu1.commit.committed_per_cycle::underflows            0      0.00%      0.00% # Number of insts commited each cycle
system.cpu1.commit.committed_per_cycle::0    254442719     89.41%     89.41% # Number of insts commited each cycle
system.cpu1.commit.committed_per_cycle::1     15333909      5.39%     94.79% # Number of insts commited each cycle
system.cpu1.commit.committed_per_cycle::2      5748292      2.02%     96.81% # Number of insts commited each cycle
system.cpu1.commit.committed_per_cycle::3      4397414      1.55%     98.36% # Number of insts commited each cycle
system.cpu1.commit.committed_per_cycle::4      1156078      0.41%     98.77% # Number of insts commited each cycle
system.cpu1.commit.committed_per_cycle::5       519249      0.18%     98.95% # Number of insts commited each cycle
system.cpu1.commit.committed_per_cycle::6      1059357      0.37%     99.32% # Number of insts commited each cycle
system.cpu1.commit.committed_per_cycle::7       322712      0.11%     99.43% # Number of insts commited each cycle
system.cpu1.commit.committed_per_cycle::8      1611491      0.57%    100.00% # Number of insts commited each cycle
system.cpu1.commit.committed_per_cycle::overflows            0      0.00%    100.00% # Number of insts commited each cycle
system.cpu1.commit.committed_per_cycle::min_value            0                       # Number of insts commited each cycle
system.cpu1.commit.committed_per_cycle::max_value            8                       # Number of insts commited each cycle
system.cpu1.commit.committed_per_cycle::total    284591221                       # Number of insts commited each cycle
system.cpu1.commit.fp_insts                        12                       # Number of committed floating point instructions.
system.cpu1.commit.function_calls             1075391                       # Number of function calls committed.
system.cpu1.commit.int_insts                 65734793                       # Number of committed integer instructions.
system.cpu1.commit.loads                     16755219                       # Number of loads committed
system.cpu1.commit.membars                    2100485                       # Number of memory barriers committed
system.cpu1.commit.op_class_0::No_OpClass      2100485      3.06%      3.06% # Class of committed instruction
system.cpu1.commit.op_class_0::IntAlu        43615902     63.44%     66.50% # Class of committed instruction
system.cpu1.commit.op_class_0::IntMult             44      0.00%     66.50% # Class of committed instruction
system.cpu1.commit.op_class_0::IntDiv              88      0.00%     66.50% # Class of committed instruction
system.cpu1.commit.op_class_0::FloatAdd             0      0.00%     66.50% # Class of committed instruction
system.cpu1.commit.op_class_0::FloatCmp             0      0.00%     66.50% # Class of committed instruction
system.cpu1.commit.op_class_0::FloatCvt             0      0.00%     66.50% # Class of committed instruction
system.cpu1.commit.op_class_0::FloatMult            0      0.00%     66.50% # Class of committed instruction
system.cpu1.commit.op_class_0::FloatMultAcc            0      0.00%     66.50% # Class of committed instruction
system.cpu1.commit.op_class_0::FloatDiv             0      0.00%     66.50% # Class of committed instruction
system.cpu1.commit.op_class_0::FloatMisc            0      0.00%     66.50% # Class of committed instruction
system.cpu1.commit.op_class_0::FloatSqrt            0      0.00%     66.50% # Class of committed instruction
system.cpu1.commit.op_class_0::SimdAdd              0      0.00%     66.50% # Class of committed instruction
system.cpu1.commit.op_class_0::SimdAddAcc            0      0.00%     66.50% # Class of committed instruction
system.cpu1.commit.op_class_0::SimdAlu              0      0.00%     66.50% # Class of committed instruction
system.cpu1.commit.op_class_0::SimdCmp              0      0.00%     66.50% # Class of committed instruction
system.cpu1.commit.op_class_0::SimdCvt              0      0.00%     66.50% # Class of committed instruction
system.cpu1.commit.op_class_0::SimdMisc             0      0.00%     66.50% # Class of committed instruction
system.cpu1.commit.op_class_0::SimdMult             0      0.00%     66.50% # Class of committed instruction
system.cpu1.commit.op_class_0::SimdMultAcc            0      0.00%     66.50% # Class of committed instruction
system.cpu1.commit.op_class_0::SimdShift            0      0.00%     66.50% # Class of committed instruction
system.cpu1.commit.op_class_0::SimdShiftAcc            0      0.00%     66.50% # Class of committed instruction
system.cpu1.commit.op_class_0::SimdDiv              0      0.00%     66.50% # Class of committed instruction
system.cpu1.commit.op_class_0::SimdSqrt             0      0.00%     66.50% # Class of committed instruction
system.cpu1.commit.op_class_0::SimdFloatAdd            0      0.00%     66.50% # Class of committed instruction
system.cpu1.commit.op_class_0::SimdFloatAlu            0      0.00%     66.50% # Class of committed instruction
system.cpu1.commit.op_class_0::SimdFloatCmp            0      0.00%     66.50% # Class of committed instruction
system.cpu1.commit.op_class_0::SimdFloatCvt            0      0.00%     66.50% # Class of committed instruction
system.cpu1.commit.op_class_0::SimdFloatDiv            0      0.00%     66.50% # Class of committed instruction
system.cpu1.commit.op_class_0::SimdFloatMisc            0      0.00%     66.50% # Class of committed instruction
system.cpu1.commit.op_class_0::SimdFloatMult            0      0.00%     66.50% # Class of committed instruction
system.cpu1.commit.op_class_0::SimdFloatMultAcc            0      0.00%     66.50% # Class of committed instruction
system.cpu1.commit.op_class_0::SimdFloatSqrt            0      0.00%     66.50% # Class of committed instruction
system.cpu1.commit.op_class_0::SimdReduceAdd            0      0.00%     66.50% # Class of committed instruction
system.cpu1.commit.op_class_0::SimdReduceAlu            0      0.00%     66.50% # Class of committed instruction
system.cpu1.commit.op_class_0::SimdReduceCmp            0      0.00%     66.50% # Class of committed instruction
system.cpu1.commit.op_class_0::SimdFloatReduceAdd            0      0.00%     66.50% # Class of committed instruction
system.cpu1.commit.op_class_0::SimdFloatReduceCmp            0      0.00%     66.50% # Class of committed instruction
system.cpu1.commit.op_class_0::SimdAes              0      0.00%     66.50% # Class of committed instruction
system.cpu1.commit.op_class_0::SimdAesMix            0      0.00%     66.50% # Class of committed instruction
system.cpu1.commit.op_class_0::SimdSha1Hash            0      0.00%     66.50% # Class of committed instruction
system.cpu1.commit.op_class_0::SimdSha1Hash2            0      0.00%     66.50% # Class of committed instruction
system.cpu1.commit.op_class_0::SimdSha256Hash            0      0.00%     66.50% # Class of committed instruction
system.cpu1.commit.op_class_0::SimdSha256Hash2            0      0.00%     66.50% # Class of committed instruction
system.cpu1.commit.op_class_0::SimdShaSigma2            0      0.00%     66.50% # Class of committed instruction
system.cpu1.commit.op_class_0::SimdShaSigma3            0      0.00%     66.50% # Class of committed instruction
system.cpu1.commit.op_class_0::SimdPredAlu            0      0.00%     66.50% # Class of committed instruction
system.cpu1.commit.op_class_0::MemRead       17805414     25.90%     92.40% # Class of committed instruction
system.cpu1.commit.op_class_0::MemWrite       5228401      7.60%    100.00% # Class of committed instruction
system.cpu1.commit.op_class_0::FloatMemRead            0      0.00%    100.00% # Class of committed instruction
system.cpu1.commit.op_class_0::FloatMemWrite           12      0.00%    100.00% # Class of committed instruction
system.cpu1.commit.op_class_0::IprAccess            0      0.00%    100.00% # Class of committed instruction
system.cpu1.commit.op_class_0::InstPrefetch            0      0.00%    100.00% # Class of committed instruction
system.cpu1.commit.op_class_0::total         68750346                       # Class of committed instruction
system.cpu1.commit.refs                      23033827                       # Number of memory references committed
system.cpu1.commit.swp_count                        0                       # Number of s/w prefetches committed
system.cpu1.commit.vec_insts                        0                       # Number of committed Vector instructions.
system.cpu1.committedInsts                   67699946                       # Number of Instructions Simulated
system.cpu1.committedOps                     68750346                       # Number of Ops (including micro ops) Simulated
system.cpu1.cpi                              4.267392                       # CPI: Cycles Per Instruction
system.cpu1.cpi_total                        4.267392                       # CPI: Total CPI of All Threads
system.cpu1.decode.BlockedCycles            226105384                       # Number of cycles decode is blocked
system.cpu1.decode.BranchMispred               487845                       # Number of times decode detected a branch misprediction
system.cpu1.decode.BranchResolved            11308228                       # Number of times decode resolved a branch
system.cpu1.decode.DecodedInsts              82167642                       # Number of instructions handled by decode
system.cpu1.decode.IdleCycles                16517391                       # Number of cycles decode is idle
system.cpu1.decode.RunCycles                 40277766                       # Number of cycles decode is running
system.cpu1.decode.SquashCycles               1299833                       # Number of cycles decode is squashing
system.cpu1.decode.SquashedInsts              1161821                       # Number of squashed instructions handled by decode
system.cpu1.decode.UnblockCycles              2381787                       # Number of cycles decode is unblocking
system.cpu1.dtb.accesses                            0                       # DTB accesses
system.cpu1.dtb.hits                                0                       # DTB hits
system.cpu1.dtb.misses                              0                       # DTB misses
system.cpu1.dtb.read_accesses                       0                       # DTB read accesses
system.cpu1.dtb.read_hits                           0                       # DTB read hits
system.cpu1.dtb.read_misses                         0                       # DTB read misses
system.cpu1.dtb.write_accesses                      0                       # DTB write accesses
system.cpu1.dtb.write_hits                          0                       # DTB write hits
system.cpu1.dtb.write_misses                        0                       # DTB write misses
system.cpu1.fetch.Branches                   20234129                       # Number of branches that fetch encountered
system.cpu1.fetch.CacheLines                 14189073                       # Number of cache lines fetched
system.cpu1.fetch.Cycles                    268519725                       # Number of cycles fetch has run and was not squashing or blocked
system.cpu1.fetch.IcacheSquashes               320072                       # Number of outstanding Icache misses that were squashed
system.cpu1.fetch.Insts                      85445454                       # Number of instructions fetch has processed
system.cpu1.fetch.MiscStallCycles                   1                       # Number of cycles fetch has spent waiting on interrupts, or bad addresses, or out of MSHRs
system.cpu1.fetch.SquashCycles                3518180                       # Number of cycles fetch has spent squashing
system.cpu1.fetch.branchRate                 0.070038                       # Number of branch fetches per cycle
system.cpu1.fetch.icacheStallCycles          16303345                       # Number of cycles fetch is stalled on an Icache miss
system.cpu1.fetch.predictedBranches          12508085                       # Number of branches that fetch has predicted taken
system.cpu1.fetch.rate                       0.295759                       # Number of inst fetches per cycle
system.cpu1.fetch.rateDist::samples         286582161                       # Number of instructions fetched each cycle (Total)
system.cpu1.fetch.rateDist::mean             0.301824                       # Number of instructions fetched each cycle (Total)
system.cpu1.fetch.rateDist::stdev            0.724569                       # Number of instructions fetched each cycle (Total)
system.cpu1.fetch.rateDist::underflows              0      0.00%      0.00% # Number of instructions fetched each cycle (Total)
system.cpu1.fetch.rateDist::0               231276385     80.70%     80.70% # Number of instructions fetched each cycle (Total)
system.cpu1.fetch.rateDist::1                34967572     12.20%     92.90% # Number of instructions fetched each cycle (Total)
system.cpu1.fetch.rateDist::2                11690254      4.08%     96.98% # Number of instructions fetched each cycle (Total)
system.cpu1.fetch.rateDist::3                 7054340      2.46%     99.44% # Number of instructions fetched each cycle (Total)
system.cpu1.fetch.rateDist::4                 1150381      0.40%     99.85% # Number of instructions fetched each cycle (Total)
system.cpu1.fetch.rateDist::5                  275582      0.10%     99.94% # Number of instructions fetched each cycle (Total)
system.cpu1.fetch.rateDist::6                  167139      0.06%    100.00% # Number of instructions fetched each cycle (Total)
system.cpu1.fetch.rateDist::7                      12      0.00%    100.00% # Number of instructions fetched each cycle (Total)
system.cpu1.fetch.rateDist::8                     496      0.00%    100.00% # Number of instructions fetched each cycle (Total)
system.cpu1.fetch.rateDist::overflows               0      0.00%    100.00% # Number of instructions fetched each cycle (Total)
system.cpu1.fetch.rateDist::min_value               0                       # Number of instructions fetched each cycle (Total)
system.cpu1.fetch.rateDist::max_value               8                       # Number of instructions fetched each cycle (Total)
system.cpu1.fetch.rateDist::total           286582161                       # Number of instructions fetched each cycle (Total)
system.cpu1.fp_regfile_reads                       12                       # number of floating regfile reads
system.cpu1.idleCycles                        2320070                       # Total number of cycles that the CPU has spent unscheduled due to idling
system.cpu1.iew.branchMispredicts             1356223                       # Number of branch mispredicts detected at execute
system.cpu1.iew.exec_branches                17463990                       # Number of branches executed
system.cpu1.iew.exec_nop                            0                       # number of nop insts executed
system.cpu1.iew.exec_rate                    0.259563                       # Inst execution rate
system.cpu1.iew.exec_refs                    25592187                       # number of memory reference insts executed
system.cpu1.iew.exec_stores                   6605744                       # Number of stores executed
system.cpu1.iew.exec_swp                            0                       # number of swp insts executed
system.cpu1.iew.iewBlockCycles              195197504                       # Number of cycles IEW is blocking
system.cpu1.iew.iewDispLoadInsts             19323068                       # Number of dispatched load instructions
system.cpu1.iew.iewDispNonSpecInsts           1051136                       # Number of dispatched non-speculative instructions
system.cpu1.iew.iewDispSquashedInsts          1372814                       # Number of squashed instructions skipped by dispatch
system.cpu1.iew.iewDispStoreInsts             6887576                       # Number of dispatched store instructions
system.cpu1.iew.iewDispatchedInsts           77772108                       # Number of instructions dispatched to IQ
system.cpu1.iew.iewExecLoadInsts             18986443                       # Number of load instructions executed
system.cpu1.iew.iewExecSquashedInsts          1300456                       # Number of squashed instructions skipped in execute
system.cpu1.iew.iewExecutedInsts             74988357                       # Number of executed instructions
system.cpu1.iew.iewIQFullEvents                969809                       # Number of times the IQ has become full, causing a stall
system.cpu1.iew.iewIdleCycles                       0                       # Number of cycles IEW is idle
system.cpu1.iew.iewLSQFullEvents              3563216                       # Number of times the LSQ has become full, causing a stall
system.cpu1.iew.iewSquashCycles               1299833                       # Number of cycles IEW is squashing
system.cpu1.iew.iewUnblockCycles              5666597                       # Number of cycles IEW is unblocking
system.cpu1.iew.lsq.thread0.blockedLoads            0                       # Number of blocked loads due to partial load-store forwarding
system.cpu1.iew.lsq.thread0.cacheBlocked        60338                       # Number of times an access to memory failed due to the cache being blocked
system.cpu1.iew.lsq.thread0.forwLoads          553394                       # Number of loads that had data forwarded from stores
system.cpu1.iew.lsq.thread0.ignoredResponses        24415                       # Number of memory responses ignored because the instruction is squashed
system.cpu1.iew.lsq.thread0.invAddrLoads            0                       # Number of loads ignored due to an invalid address
system.cpu1.iew.lsq.thread0.invAddrSwpfs            0                       # Number of software prefetches ignored due to an invalid address
system.cpu1.iew.lsq.thread0.memOrderViolation         1383                       # Number of memory ordering violations
system.cpu1.iew.lsq.thread0.rescheduledLoads         6253                       # Number of loads that were rescheduled
system.cpu1.iew.lsq.thread0.squashedLoads      2567849                       # Number of loads squashed
system.cpu1.iew.lsq.thread0.squashedStores       608968                       # Number of stores squashed
system.cpu1.iew.memOrderViolationEvents          1383                       # Number of memory order violations
system.cpu1.iew.predictedNotTakenIncorrect       389774                       # Number of branches that were predicted not taken incorrectly
system.cpu1.iew.predictedTakenIncorrect        966449                       # Number of branches that were predicted taken incorrectly
system.cpu1.iew.wb_consumers                 41737765                       # num instructions consuming a value
system.cpu1.iew.wb_count                     73987136                       # cumulative count of insts written-back
system.cpu1.iew.wb_fanout                    0.839301                       # average fanout of values written-back
system.cpu1.iew.wb_producers                 35030557                       # num instructions producing a value
system.cpu1.iew.wb_rate                      0.256097                       # insts written-back per cycle
system.cpu1.iew.wb_sent                      74017484                       # cumulative count of insts sent to commit
system.cpu1.int_regfile_reads                95413274                       # number of integer regfile reads
system.cpu1.int_regfile_writes               49498919                       # number of integer regfile writes
system.cpu1.ipc                              0.234335                       # IPC: Instructions Per Cycle
system.cpu1.ipc_total                        0.234335                       # IPC: Total IPC of All Threads
system.cpu1.iq.FU_type_0::No_OpClass          2100695      2.75%      2.75% # Type of FU issued
system.cpu1.iq.FU_type_0::IntAlu             48205530     63.19%     65.94% # Type of FU issued
system.cpu1.iq.FU_type_0::IntMult                  53      0.00%     65.94% # Type of FU issued
system.cpu1.iq.FU_type_0::IntDiv                   88      0.00%     65.94% # Type of FU issued
system.cpu1.iq.FU_type_0::FloatAdd                  0      0.00%     65.94% # Type of FU issued
system.cpu1.iq.FU_type_0::FloatCmp                  0      0.00%     65.94% # Type of FU issued
system.cpu1.iq.FU_type_0::FloatCvt                  0      0.00%     65.94% # Type of FU issued
system.cpu1.iq.FU_type_0::FloatMult                 0      0.00%     65.94% # Type of FU issued
system.cpu1.iq.FU_type_0::FloatMultAcc              0      0.00%     65.94% # Type of FU issued
system.cpu1.iq.FU_type_0::FloatDiv                  0      0.00%     65.94% # Type of FU issued
system.cpu1.iq.FU_type_0::FloatMisc                 0      0.00%     65.94% # Type of FU issued
system.cpu1.iq.FU_type_0::FloatSqrt                 0      0.00%     65.94% # Type of FU issued
system.cpu1.iq.FU_type_0::SimdAdd                   0      0.00%     65.94% # Type of FU issued
system.cpu1.iq.FU_type_0::SimdAddAcc                0      0.00%     65.94% # Type of FU issued
system.cpu1.iq.FU_type_0::SimdAlu                   0      0.00%     65.94% # Type of FU issued
system.cpu1.iq.FU_type_0::SimdCmp                   0      0.00%     65.94% # Type of FU issued
system.cpu1.iq.FU_type_0::SimdCvt                   0      0.00%     65.94% # Type of FU issued
system.cpu1.iq.FU_type_0::SimdMisc                  0      0.00%     65.94% # Type of FU issued
system.cpu1.iq.FU_type_0::SimdMult                  0      0.00%     65.94% # Type of FU issued
system.cpu1.iq.FU_type_0::SimdMultAcc               0      0.00%     65.94% # Type of FU issued
system.cpu1.iq.FU_type_0::SimdShift                 0      0.00%     65.94% # Type of FU issued
system.cpu1.iq.FU_type_0::SimdShiftAcc              0      0.00%     65.94% # Type of FU issued
system.cpu1.iq.FU_type_0::SimdDiv                   0      0.00%     65.94% # Type of FU issued
system.cpu1.iq.FU_type_0::SimdSqrt                  0      0.00%     65.94% # Type of FU issued
system.cpu1.iq.FU_type_0::SimdFloatAdd              0      0.00%     65.94% # Type of FU issued
system.cpu1.iq.FU_type_0::SimdFloatAlu              0      0.00%     65.94% # Type of FU issued
system.cpu1.iq.FU_type_0::SimdFloatCmp              0      0.00%     65.94% # Type of FU issued
system.cpu1.iq.FU_type_0::SimdFloatCvt              0      0.00%     65.94% # Type of FU issued
system.cpu1.iq.FU_type_0::SimdFloatDiv              0      0.00%     65.94% # Type of FU issued
system.cpu1.iq.FU_type_0::SimdFloatMisc             0      0.00%     65.94% # Type of FU issued
system.cpu1.iq.FU_type_0::SimdFloatMult             0      0.00%     65.94% # Type of FU issued
system.cpu1.iq.FU_type_0::SimdFloatMultAcc            0      0.00%     65.94% # Type of FU issued
system.cpu1.iq.FU_type_0::SimdFloatSqrt             0      0.00%     65.94% # Type of FU issued
system.cpu1.iq.FU_type_0::SimdReduceAdd             0      0.00%     65.94% # Type of FU issued
system.cpu1.iq.FU_type_0::SimdReduceAlu             0      0.00%     65.94% # Type of FU issued
system.cpu1.iq.FU_type_0::SimdReduceCmp             0      0.00%     65.94% # Type of FU issued
system.cpu1.iq.FU_type_0::SimdFloatReduceAdd            0      0.00%     65.94% # Type of FU issued
system.cpu1.iq.FU_type_0::SimdFloatReduceCmp            0      0.00%     65.94% # Type of FU issued
system.cpu1.iq.FU_type_0::SimdAes                   0      0.00%     65.94% # Type of FU issued
system.cpu1.iq.FU_type_0::SimdAesMix                0      0.00%     65.94% # Type of FU issued
system.cpu1.iq.FU_type_0::SimdSha1Hash              0      0.00%     65.94% # Type of FU issued
system.cpu1.iq.FU_type_0::SimdSha1Hash2             0      0.00%     65.94% # Type of FU issued
system.cpu1.iq.FU_type_0::SimdSha256Hash            0      0.00%     65.94% # Type of FU issued
system.cpu1.iq.FU_type_0::SimdSha256Hash2            0      0.00%     65.94% # Type of FU issued
system.cpu1.iq.FU_type_0::SimdShaSigma2             0      0.00%     65.94% # Type of FU issued
system.cpu1.iq.FU_type_0::SimdShaSigma3             0      0.00%     65.94% # Type of FU issued
system.cpu1.iq.FU_type_0::SimdPredAlu               0      0.00%     65.94% # Type of FU issued
system.cpu1.iq.FU_type_0::MemRead            20361133     26.69%     92.63% # Type of FU issued
system.cpu1.iq.FU_type_0::MemWrite            5621302      7.37%    100.00% # Type of FU issued
system.cpu1.iq.FU_type_0::FloatMemRead              0      0.00%    100.00% # Type of FU issued
system.cpu1.iq.FU_type_0::FloatMemWrite            12      0.00%    100.00% # Type of FU issued
system.cpu1.iq.FU_type_0::IprAccess                 0      0.00%    100.00% # Type of FU issued
system.cpu1.iq.FU_type_0::InstPrefetch              0      0.00%    100.00% # Type of FU issued
system.cpu1.iq.FU_type_0::total              76288813                       # Type of FU issued
system.cpu1.iq.fp_alu_accesses                     16                       # Number of floating point alu accesses
system.cpu1.iq.fp_inst_queue_reads                 28                       # Number of floating instruction queue reads
system.cpu1.iq.fp_inst_queue_wakeup_accesses           12                       # Number of floating instruction queue wakeup accesses
system.cpu1.iq.fp_inst_queue_writes                12                       # Number of floating instruction queue writes
system.cpu1.iq.fu_busy_cnt                    1333836                       # FU busy when requested
system.cpu1.iq.fu_busy_rate                  0.017484                       # FU busy rate (busy events/executed inst)
system.cpu1.iq.fu_full::No_OpClass                  0      0.00%      0.00% # attempts to use FU when none available
system.cpu1.iq.fu_full::IntAlu                 204031     15.30%     15.30% # attempts to use FU when none available
system.cpu1.iq.fu_full::IntMult                     0      0.00%     15.30% # attempts to use FU when none available
system.cpu1.iq.fu_full::IntDiv                      0      0.00%     15.30% # attempts to use FU when none available
system.cpu1.iq.fu_full::FloatAdd                    0      0.00%     15.30% # attempts to use FU when none available
system.cpu1.iq.fu_full::FloatCmp                    0      0.00%     15.30% # attempts to use FU when none available
system.cpu1.iq.fu_full::FloatCvt                    0      0.00%     15.30% # attempts to use FU when none available
system.cpu1.iq.fu_full::FloatMult                   0      0.00%     15.30% # attempts to use FU when none available
system.cpu1.iq.fu_full::FloatMultAcc                0      0.00%     15.30% # attempts to use FU when none available
system.cpu1.iq.fu_full::FloatDiv                    0      0.00%     15.30% # attempts to use FU when none available
system.cpu1.iq.fu_full::FloatMisc                   0      0.00%     15.30% # attempts to use FU when none available
system.cpu1.iq.fu_full::FloatSqrt                   0      0.00%     15.30% # attempts to use FU when none available
system.cpu1.iq.fu_full::SimdAdd                     0      0.00%     15.30% # attempts to use FU when none available
system.cpu1.iq.fu_full::SimdAddAcc                  0      0.00%     15.30% # attempts to use FU when none available
system.cpu1.iq.fu_full::SimdAlu                     0      0.00%     15.30% # attempts to use FU when none available
system.cpu1.iq.fu_full::SimdCmp                     0      0.00%     15.30% # attempts to use FU when none available
system.cpu1.iq.fu_full::SimdCvt                     0      0.00%     15.30% # attempts to use FU when none available
system.cpu1.iq.fu_full::SimdMisc                    0      0.00%     15.30% # attempts to use FU when none available
system.cpu1.iq.fu_full::SimdMult                    0      0.00%     15.30% # attempts to use FU when none available
system.cpu1.iq.fu_full::SimdMultAcc                 0      0.00%     15.30% # attempts to use FU when none available
system.cpu1.iq.fu_full::SimdShift                   0      0.00%     15.30% # attempts to use FU when none available
system.cpu1.iq.fu_full::SimdShiftAcc                0      0.00%     15.30% # attempts to use FU when none available
system.cpu1.iq.fu_full::SimdDiv                     0      0.00%     15.30% # attempts to use FU when none available
system.cpu1.iq.fu_full::SimdSqrt                    0      0.00%     15.30% # attempts to use FU when none available
system.cpu1.iq.fu_full::SimdFloatAdd                0      0.00%     15.30% # attempts to use FU when none available
system.cpu1.iq.fu_full::SimdFloatAlu                0      0.00%     15.30% # attempts to use FU when none available
system.cpu1.iq.fu_full::SimdFloatCmp                0      0.00%     15.30% # attempts to use FU when none available
system.cpu1.iq.fu_full::SimdFloatCvt                0      0.00%     15.30% # attempts to use FU when none available
system.cpu1.iq.fu_full::SimdFloatDiv                0      0.00%     15.30% # attempts to use FU when none available
system.cpu1.iq.fu_full::SimdFloatMisc               0      0.00%     15.30% # attempts to use FU when none available
system.cpu1.iq.fu_full::SimdFloatMult               0      0.00%     15.30% # attempts to use FU when none available
system.cpu1.iq.fu_full::SimdFloatMultAcc            0      0.00%     15.30% # attempts to use FU when none available
system.cpu1.iq.fu_full::SimdFloatSqrt               0      0.00%     15.30% # attempts to use FU when none available
system.cpu1.iq.fu_full::SimdReduceAdd               0      0.00%     15.30% # attempts to use FU when none available
system.cpu1.iq.fu_full::SimdReduceAlu               0      0.00%     15.30% # attempts to use FU when none available
system.cpu1.iq.fu_full::SimdReduceCmp               0      0.00%     15.30% # attempts to use FU when none available
system.cpu1.iq.fu_full::SimdFloatReduceAdd            0      0.00%     15.30% # attempts to use FU when none available
system.cpu1.iq.fu_full::SimdFloatReduceCmp            0      0.00%     15.30% # attempts to use FU when none available
system.cpu1.iq.fu_full::SimdAes                     0      0.00%     15.30% # attempts to use FU when none available
system.cpu1.iq.fu_full::SimdAesMix                  0      0.00%     15.30% # attempts to use FU when none available
system.cpu1.iq.fu_full::SimdSha1Hash                0      0.00%     15.30% # attempts to use FU when none available
system.cpu1.iq.fu_full::SimdSha1Hash2               0      0.00%     15.30% # attempts to use FU when none available
system.cpu1.iq.fu_full::SimdSha256Hash              0      0.00%     15.30% # attempts to use FU when none available
system.cpu1.iq.fu_full::SimdSha256Hash2             0      0.00%     15.30% # attempts to use FU when none available
system.cpu1.iq.fu_full::SimdShaSigma2               0      0.00%     15.30% # attempts to use FU when none available
system.cpu1.iq.fu_full::SimdShaSigma3               0      0.00%     15.30% # attempts to use FU when none available
system.cpu1.iq.fu_full::SimdPredAlu                 0      0.00%     15.30% # attempts to use FU when none available
system.cpu1.iq.fu_full::MemRead                923970     69.27%     84.57% # attempts to use FU when none available
system.cpu1.iq.fu_full::MemWrite               205831     15.43%    100.00% # attempts to use FU when none available
[...]
system.cpu1.dcache.WriteReq_mshr_miss_rate::total     0.047037                       # mshr miss rate for WriteReq accesses
system.cpu1.dcache.WriteReq_avg_mshr_miss_latency::.cpu1.data 52854.728721                       # average WriteReq mshr miss latency
system.cpu1.dcache.WriteReq_avg_mshr_miss_latency::total 52854.728721                       # average WriteReq mshr miss latency
system.cpu1.dcache.LoadLockedReq_hits::.cpu1.data        17452                       # number of LoadLockedReq hits
system.cpu1.dcache.LoadLockedReq_hits::total        17452                       # number of LoadLockedReq hits
system.cpu1.dcache.LoadLockedReq_misses::.cpu1.data          732                       # number of LoadLockedReq misses
system.cpu1.dcache.LoadLockedReq_misses::total          732                       # number of LoadLockedReq misses
system.cpu1.dcache.LoadLockedReq_miss_latency::.cpu1.data     32574000                       # number of LoadLockedReq miss cycles
system.cpu1.dcache.LoadLockedReq_miss_latency::total     32574000                       # number of LoadLockedReq miss cycles
system.cpu1.dcache.LoadLockedReq_accesses::.cpu1.data        18184                       # number of LoadLockedReq accesses(hits+misses)
system.cpu1.dcache.LoadLockedReq_accesses::total        18184                       # number of LoadLockedReq accesses(hits+misses)
system.cpu1.dcache.LoadLockedReq_miss_rate::.cpu1.data     0.040255                       # miss rate for LoadLockedReq accesses
system.cpu1.dcache.LoadLockedReq_miss_rate::total     0.040255                       # miss rate for LoadLockedReq accesses
system.cpu1.dcache.LoadLockedReq_avg_miss_latency::.cpu1.data        44500                       # average LoadLockedReq miss latency
system.cpu1.dcache.LoadLockedReq_avg_miss_latency::total        44500                       # average LoadLockedReq miss latency
system.cpu1.dcache.LoadLockedReq_mshr_hits::.cpu1.data          189                       # number of LoadLockedReq MSHR hits
system.cpu1.dcache.LoadLockedReq_mshr_hits::total          189                       # number of LoadLockedReq MSHR hits
system.cpu1.dcache.LoadLockedReq_mshr_misses::.cpu1.data          543                       # number of LoadLockedReq MSHR misses
system.cpu1.dcache.LoadLockedReq_mshr_misses::total          543                       # number of LoadLockedReq MSHR misses
system.cpu1.dcache.LoadLockedReq_mshr_miss_latency::.cpu1.data     21532500                       # number of LoadLockedReq MSHR miss cycles
system.cpu1.dcache.LoadLockedReq_mshr_miss_latency::total     21532500                       # number of LoadLockedReq MSHR miss cycles
system.cpu1.dcache.LoadLockedReq_mshr_miss_rate::.cpu1.data     0.029861                       # mshr miss rate for LoadLockedReq accesses
system.cpu1.dcache.LoadLockedReq_mshr_miss_rate::total     0.029861                       # mshr miss rate for LoadLockedReq accesses
system.cpu1.dcache.LoadLockedReq_avg_mshr_miss_latency::.cpu1.data 39654.696133                       # average LoadLockedReq mshr miss latency
system.cpu1.dcache.LoadLockedReq_avg_mshr_miss_latency::total 39654.696133                       # average LoadLockedReq mshr miss latency
system.cpu1.dcache.StoreCondReq_hits::.cpu1.data        16650                       # number of StoreCondReq hits
system.cpu1.dcache.StoreCondReq_hits::total        16650                       # number of StoreCondReq hits
system.cpu1.dcache.StoreCondReq_misses::.cpu1.data          792                       # number of StoreCondReq misses
system.cpu1.dcache.StoreCondReq_misses::total          792                       # number of StoreCondReq misses
system.cpu1.dcache.StoreCondReq_miss_latency::.cpu1.data      6316000                       # number of StoreCondReq miss cycles
system.cpu1.dcache.StoreCondReq_miss_latency::total      6316000                       # number of StoreCondReq miss cycles
system.cpu1.dcache.StoreCondReq_accesses::.cpu1.data        17442                       # number of StoreCondReq accesses(hits+misses)
system.cpu1.dcache.StoreCondReq_accesses::total        17442                       # number of StoreCondReq accesses(hits+misses)
system.cpu1.dcache.StoreCondReq_miss_rate::.cpu1.data     0.045408                       # miss rate for StoreCondReq accesses
system.cpu1.dcache.StoreCondReq_miss_rate::total     0.045408                       # miss rate for StoreCondReq accesses
system.cpu1.dcache.StoreCondReq_avg_miss_latency::.cpu1.data  7974.747475                       # average StoreCondReq miss latency
system.cpu1.dcache.StoreCondReq_avg_miss_latency::total  7974.747475                       # average StoreCondReq miss latency
system.cpu1.dcache.StoreCondReq_mshr_misses::.cpu1.data          783                       # number of StoreCondReq MSHR misses
system.cpu1.dcache.StoreCondReq_mshr_misses::total          783                       # number of StoreCondReq MSHR misses
system.cpu1.dcache.StoreCondReq_mshr_miss_latency::.cpu1.data      5601000                       # number of StoreCondReq MSHR miss cycles
system.cpu1.dcache.StoreCondReq_mshr_miss_latency::total      5601000                       # number of StoreCondReq MSHR miss cycles
system.cpu1.dcache.StoreCondReq_mshr_miss_rate::.cpu1.data     0.044892                       # mshr miss rate for StoreCondReq accesses
system.cpu1.dcache.StoreCondReq_mshr_miss_rate::total     0.044892                       # mshr miss rate for StoreCondReq accesses
system.cpu1.dcache.StoreCondReq_avg_mshr_miss_latency::.cpu1.data  7153.256705                       # average StoreCondReq mshr miss latency
system.cpu1.dcache.StoreCondReq_avg_mshr_miss_latency::total  7153.256705                       # average StoreCondReq mshr miss latency
system.cpu1.dcache.StoreCondFailReq_miss_latency::.cpu1.data       950500                       # number of StoreCondFailReq miss cycles
system.cpu1.dcache.StoreCondFailReq_miss_latency::total       950500                       # number of StoreCondFailReq miss cycles
system.cpu1.dcache.StoreCondFailReq_avg_miss_latency::.cpu1.data          inf                       # average StoreCondFailReq miss latency
system.cpu1.dcache.StoreCondFailReq_avg_miss_latency::total          inf                       # average StoreCondFailReq miss latency
system.cpu1.dcache.StoreCondFailReq_mshr_miss_latency::.cpu1.data       882500                       # number of StoreCondFailReq MSHR miss cycles
system.cpu1.dcache.StoreCondFailReq_mshr_miss_latency::total       882500                       # number of StoreCondFailReq MSHR miss cycles
system.cpu1.dcache.StoreCondFailReq_avg_mshr_miss_latency::.cpu1.data          inf                       # average StoreCondFailReq mshr miss latency
system.cpu1.dcache.StoreCondFailReq_avg_mshr_miss_latency::total          inf                       # average StoreCondFailReq mshr miss latency
system.cpu1.dcache.SwapReq_hits::.cpu1.data          663                       # number of SwapReq hits
system.cpu1.dcache.SwapReq_hits::total            663                       # number of SwapReq hits
system.cpu1.dcache.SwapReq_misses::.cpu1.data         1186                       # number of SwapReq misses
system.cpu1.dcache.SwapReq_misses::total         1186                       # number of SwapReq misses
system.cpu1.dcache.SwapReq_miss_latency::.cpu1.data     15198999                       # number of SwapReq miss cycles
system.cpu1.dcache.SwapReq_miss_latency::total     15198999                       # number of SwapReq miss cycles
system.cpu1.dcache.SwapReq_accesses::.cpu1.data         1849                       # number of SwapReq accesses(hits+misses)
system.cpu1.dcache.SwapReq_accesses::total         1849                       # number of SwapReq accesses(hits+misses)
system.cpu1.dcache.SwapReq_miss_rate::.cpu1.data     0.641428                       # miss rate for SwapReq accesses
system.cpu1.dcache.SwapReq_miss_rate::total     0.641428                       # miss rate for SwapReq accesses
system.cpu1.dcache.SwapReq_avg_miss_latency::.cpu1.data 12815.344857                       # average SwapReq miss latency
system.cpu1.dcache.SwapReq_avg_miss_latency::total 12815.344857                       # average SwapReq miss latency
system.cpu1.dcache.SwapReq_mshr_misses::.cpu1.data         1186                       # number of SwapReq MSHR misses
system.cpu1.dcache.SwapReq_mshr_misses::total         1186                       # number of SwapReq MSHR misses
system.cpu1.dcache.SwapReq_mshr_miss_latency::.cpu1.data     14012999                       # number of SwapReq MSHR miss cycles
system.cpu1.dcache.SwapReq_mshr_miss_latency::total     14012999                       # number of SwapReq MSHR miss cycles
system.cpu1.dcache.SwapReq_mshr_miss_rate::.cpu1.data     0.641428                       # mshr miss rate for SwapReq accesses
system.cpu1.dcache.SwapReq_mshr_miss_rate::total     0.641428                       # mshr miss rate for SwapReq accesses
system.cpu1.dcache.SwapReq_avg_mshr_miss_latency::.cpu1.data 11815.344857                       # average SwapReq mshr miss latency
system.cpu1.dcache.SwapReq_avg_mshr_miss_latency::total 11815.344857                       # average SwapReq mshr miss latency
system.cpu1.dcache.tags.pwrStateResidencyTicks::UNDEFINED  37207054000                       # Cumulative time (in ticks) in various power states
system.cpu1.dcache.tags.tagsinuse           31.459183                       # Cycle average of tags in use
system.cpu1.dcache.tags.total_refs            8387176                       # Total number of references to valid blocks.
system.cpu1.dcache.tags.sampled_refs           498352                       # Sample count of references to valid blocks.
system.cpu1.dcache.tags.avg_refs            16.829823                       # Average number of references to valid blocks.
system.cpu1.dcache.tags.warmup_cycle                0                       # Cycle when the warmup percentage was hit.
system.cpu1.dcache.tags.occ_blocks::.cpu1.data    31.459183                       # Average occupied blocks per requestor
system.cpu1.dcache.tags.occ_percent::.cpu1.data     0.983099                       # Average percentage of cache occupancy
system.cpu1.dcache.tags.occ_percent::total     0.983099                       # Average percentage of cache occupancy
system.cpu1.dcache.tags.occ_task_id_blocks::1024           27                       # Occupied blocks per task id
system.cpu1.dcache.tags.age_task_id_blocks_1024::1           27                       # Occupied blocks per task id
system.cpu1.dcache.tags.occ_task_id_percent::1024     0.843750                       # Percentage of cache occupancy per task id
system.cpu1.dcache.tags.tag_accesses         23379912                       # Number of tag accesses
system.cpu1.dcache.tags.data_accesses        23379912                       # Number of data accesses
system.cpu_clk_domain.clock                       500                       # Clock period in ticks
system.tol2bus.pwrStateResidencyTicks::UNDEFINED  37207054000                       # Cumulative time (in ticks) in various power states
system.tol2bus.trans_dist::ReadResp           1690156                       # Transaction distribution
system.tol2bus.trans_dist::ReadRespWithInvalidate           12                       # Transaction distribution
system.tol2bus.trans_dist::WritebackDirty      1869532                       # Transaction distribution
system.tol2bus.trans_dist::WritebackClean      1219379                       # Transaction distribution
system.tol2bus.trans_dist::CleanEvict         3704875                       # Transaction distribution
system.tol2bus.trans_dist::HardPFReq          2764626                       # Transaction distribution
system.tol2bus.trans_dist::HardPFResp               6                       # Transaction distribution
system.tol2bus.trans_dist::UpgradeReq            4762                       # Transaction distribution
system.tol2bus.trans_dist::SCUpgradeReq          3532                       # Transaction distribution
system.tol2bus.trans_dist::UpgradeResp           8294                       # Transaction distribution
system.tol2bus.trans_dist::SCUpgradeFailReq          210                       # Transaction distribution
system.tol2bus.trans_dist::UpgradeFailResp          210                       # Transaction distribution
system.tol2bus.trans_dist::ReadExReq           481441                       # Transaction distribution
system.tol2bus.trans_dist::ReadExResp          481441                       # Transaction distribution
system.tol2bus.trans_dist::ReadCleanReq        119878                       # Transaction distribution
system.tol2bus.trans_dist::ReadSharedReq      1570290                       # Transaction distribution
system.tol2bus.trans_dist::InvalidateReq          971                       # Transaction distribution
system.tol2bus.trans_dist::InvalidateResp          971                       # Transaction distribution
system.tol2bus.pkt_count_system.cpu0.icache.mem_side::system.l2.cpu_side       218066                       # Packet count per connected master and slave (bytes)
system.tol2bus.pkt_count_system.cpu0.dcache.mem_side::system.l2.cpu_side      1657629                       # Packet count per connected master and slave (bytes)
system.tol2bus.pkt_count_system.cpu1.icache.mem_side::system.l2.cpu_side        47967                       # Packet count per connected master and slave (bytes)
system.tol2bus.pkt_count_system.cpu1.dcache.mem_side::system.l2.cpu_side      1490097                       # Packet count per connected master and slave (bytes)
system.tol2bus.pkt_count_system.cpu2.icache.mem_side::system.l2.cpu_side        47082                       # Packet count per connected master and slave (bytes)
system.tol2bus.pkt_count_system.cpu2.dcache.mem_side::system.l2.cpu_side      1497662                       # Packet count per connected master and slave (bytes)
system.tol2bus.pkt_count_system.cpu3.icache.mem_side::system.l2.cpu_side        46458                       # Packet count per connected master and slave (bytes)
system.tol2bus.pkt_count_system.cpu3.dcache.mem_side::system.l2.cpu_side      1495286                       # Packet count per connected master and slave (bytes)
system.tol2bus.pkt_count::total               6500247                       # Packet count per connected master and slave (bytes)
system.tol2bus.pkt_size_system.cpu0.icache.mem_side::system.l2.cpu_side      9302848                       # Cumulative packet size per connected master and slave (bytes)
system.tol2bus.pkt_size_system.cpu0.dcache.mem_side::system.l2.cpu_side     70408576                       # Cumulative packet size per connected master and slave (bytes)
system.tol2bus.pkt_size_system.cpu1.icache.mem_side::system.l2.cpu_side      2046592                       # Cumulative packet size per connected master and slave (bytes)
system.tol2bus.pkt_size_system.cpu1.dcache.mem_side::system.l2.cpu_side     63317760                       # Cumulative packet size per connected master and slave (bytes)
system.tol2bus.pkt_size_system.cpu2.icache.mem_side::system.l2.cpu_side      2008832                       # Cumulative packet size per connected master and slave (bytes)
system.tol2bus.pkt_size_system.cpu2.dcache.mem_side::system.l2.cpu_side     63634816                       # Cumulative packet size per connected master and slave (bytes)
system.tol2bus.pkt_size_system.cpu3.icache.mem_side::system.l2.cpu_side      1982208                       # Cumulative packet size per connected master and slave (bytes)
system.tol2bus.pkt_size_system.cpu3.dcache.mem_side::system.l2.cpu_side     63530688                       # Cumulative packet size per connected master and slave (bytes)
system.tol2bus.pkt_size::total              276232320                       # Cumulative packet size per connected master and slave (bytes)
system.tol2bus.snoops                         7420345                       # Total snoops (count)
system.tol2bus.snoopTraffic                  60455168                       # Total snoop traffic (bytes)
system.tol2bus.snoop_fanout::samples          9600828                       # Request fanout histogram
system.tol2bus.snoop_fanout::mean            0.251847                       # Request fanout histogram
system.tol2bus.snoop_fanout::stdev           0.506653                       # Request fanout histogram
system.tol2bus.snoop_fanout::underflows             0      0.00%      0.00% # Request fanout histogram
system.tol2bus.snoop_fanout::0                7396360     77.04%     77.04% # Request fanout histogram
system.tol2bus.snoop_fanout::1                2085269     21.72%     98.76% # Request fanout histogram
system.tol2bus.snoop_fanout::2                  44927      0.47%     99.23% # Request fanout histogram
system.tol2bus.snoop_fanout::3                  54267      0.57%     99.79% # Request fanout histogram
system.tol2bus.snoop_fanout::4                  20005      0.21%    100.00% # Request fanout histogram
system.tol2bus.snoop_fanout::5                      0      0.00%    100.00% # Request fanout histogram
system.tol2bus.snoop_fanout::6                      0      0.00%    100.00% # Request fanout histogram
system.tol2bus.snoop_fanout::7                      0      0.00%    100.00% # Request fanout histogram
system.tol2bus.snoop_fanout::8                      0      0.00%    100.00% # Request fanout histogram
system.tol2bus.snoop_fanout::overflows              0      0.00%    100.00% # Request fanout histogram
system.tol2bus.snoop_fanout::min_value              0                       # Request fanout histogram
system.tol2bus.snoop_fanout::max_value              4                       # Request fanout histogram
system.tol2bus.snoop_fanout::total            9600828                       # Request fanout histogram
system.tol2bus.reqLayer0.occupancy         4360542751                       # Layer occupancy (ticks)
system.tol2bus.reqLayer0.utilization             11.7                       # Layer utilization (%)
system.tol2bus.respLayer5.occupancy         754287912                       # Layer occupancy (ticks)
system.tol2bus.respLayer5.utilization             2.0                       # Layer utilization (%)
system.tol2bus.respLayer4.occupancy          24998504                       # Layer occupancy (ticks)
system.tol2bus.respLayer4.utilization             0.1                       # Layer utilization (%)
system.tol2bus.respLayer7.occupancy         753297340                       # Layer occupancy (ticks)
system.tol2bus.respLayer7.utilization             2.0                       # Layer utilization (%)
system.tol2bus.respLayer6.occupancy          24707929                       # Layer occupancy (ticks)
system.tol2bus.respLayer6.utilization             0.1                       # Layer utilization (%)
system.tol2bus.respLayer1.occupancy         831842441                       # Layer occupancy (ticks)
system.tol2bus.respLayer1.utilization             2.2                       # Layer utilization (%)
system.tol2bus.respLayer0.occupancy         109368145                       # Layer occupancy (ticks)
system.tol2bus.respLayer0.utilization             0.3                       # Layer utilization (%)
system.tol2bus.respLayer3.occupancy         750196444                       # Layer occupancy (ticks)
system.tol2bus.respLayer3.utilization             2.0                       # Layer utilization (%)
system.tol2bus.respLayer2.occupancy          25381548                       # Layer occupancy (ticks)
system.tol2bus.respLayer2.utilization             0.1                       # Layer utilization (%)
system.tol2bus.snoopLayer0.occupancy             9003                       # Layer occupancy (ticks)
system.tol2bus.snoopLayer0.utilization            0.0                       # Layer utilization (%)

---------- End Simulation Statistics   ----------
