Redirecting stdout to /vol1/msoyturk/gem5/results/sssp/epinions.el/prefetch_TaggedPrefetcher_LIPRP/output.txt
Redirecting stderr to /vol1/msoyturk/gem5/results/sssp/epinions.el/prefetch_TaggedPrefetcher_LIPRP/error.txt
gem5 Simulator System.  http://gem5.org
gem5 is copyrighted software; use the --copyright option for details.

gem5 compiled Apr 26 2020 13:32:47
gem5 started Apr 28 2020 02:25:20
gem5 executing on draco, pid 28286
command line: /vol1/msoyturk/gem5/build/RISCV/gem5.fast -re --outdir=/vol1/msoyturk/gem5/results/sssp/epinions.el/prefetch_TaggedPrefetcher_LIPRP --stdout-file=output.txt --stderr-file=error.txt /vol1/msoyturk/gem5/configs/example/my_se.py -c /vol1/msoyturk/gem5/gapbs/sssp -o '-f /vol1/msoyturk/gem5/gapbs/test/graphs/epinions.el' --caches --l1d_size=2kB --l1i_size=2kB --cpu-type=DerivO3CPU -n 4 --mem-size=512MB --l2cache --l2_size=4kB --l2-hwp-type=TaggedPrefetcher --l2-replacement-policy=LIPRP --l1i_mshrs=4 --l1d_mshrs=4 --l2_mshrs=20 --l1i_write_buffers=8 --l1d_write_buffers=8 --l2_write_buffers=8

info: Standard input is not a terminal, disabling listeners.
Warning: l2-hwp-type is set ( TaggedPrefetcher ), but the current l2 has a default Hardware Prefetcher of type <class 'm5.params.NullSimObject'> , using the specified by the flag option.
Global frequency set at 1000000000000 ticks per second
**** REAL SIMULATION ****
Read Time:           0.58503
Build Time:          0.10610
Graph has 75888 nodes and 508837 directed edges for degree: 6
    0          1     0.03027
    8          1     0.06185
   10          1     0.09936
   12          1     0.12118
   14          1     0.05025
   16          3     0.05956
   17          3     0.04929
   18          4     0.20311
   19          5     0.20025
   20          4     0.37839
   21         10     0.34051
   22         13     0.37690
   23         19     0.33017
   24         26     0.31013
   25         31     0.53268
   26         49     0.45621
   27         75     0.48233
   28         64     0.52435
   29         81     0.38698
   30        111     0.56786
   31        105     0.57316
   32        131     0.49739
   33        154     0.61495
   34        181     0.72070
   35        188     0.73175
   36        193     0.67717
   37        231     0.63302
   38        260     0.55819
   39        263     0.49280
   40        258     0.46121
   41        295     0.59487
   42        278     0.31087
   43        327     0.46889
   44        291     0.53840
   45        297     0.35716
   46        325     0.38647
   47        348     0.42895
   48        320     0.34535
   49        324     0.25971
   50        350     0.34467
   51        347     0.33753
   52        323     0.31770
   53        336     0.24904
   54        366     0.38298
   55        360     0.28268
   56        372     0.31558
   57        347     0.21730
   58        362     0.22395
   59        363     0.27315
   60        393     0.22323
   61        335     0.19626
   62        350     0.17911
   63        334     0.18263
   64        344     0.19635
   65        386     0.16458
   66        343     0.15021
   67        329     0.14700
   68        305     0.11366
   69        386     0.16853
   70        307     0.12805
   71        334     0.13656
   72        377     0.15248
   73        369     0.12632
   74        345     0.10671
   75        338     0.11772
   76        347     0.11582
   77        316     0.09526
   78        342     0.11908
   79        322     0.09107
   80        357     0.10947
   81        303     0.10463
   82        335     0.12720
   83        334     0.11113
   84        350     0.11794
   85        307     0.08748
   86        317     0.06250
   87        316     0.08294
   88        317     0.08741
   89        305     0.08554
   90        309     0.07144
   91        289     0.05784
   92        303     0.09398
   93        299     0.08835
   94        320     0.11783
   95        315     0.08656
   96        302     0.08523
   97        325     0.08524
   98        284     0.08265
   99        278     0.08312
  100        311     0.08112
  101        281     0.07600
  102        292     0.08250
  103        284     0.06931
  104        307     0.08153
  105        278     0.06686
  106        291     0.07416
  107        305     0.08485
  108        303     0.08979
  109        283     0.06807
  110        309     0.06791
  111        292     0.05839
  112        284     0.06317
  113        308     0.06500
  114        259     0.05343
  115        295     0.07480
  116        260     0.06071
  117        276     0.07284
  118        276     0.05230
  119        314     0.07066
  120        279     0.05677
  121        261     0.05119
  122        268     0.05140
  123        296     0.06489
  124        283     0.06190
  125        282     0.06491
  126        290     0.06432
  127        262     0.05778
  128        266     0.05099
  129        258     0.06279
  130        284     0.06572
  131        277     0.05201
  132        278     0.05828
  133        260     0.08679
  134        264     0.05403
  135        255     0.05428
  136        223     0.03980
  137        226     0.04091
  138        228     0.03875
  139        260     0.04532
  140        264     0.05182
  141        265     0.04812
  142        249     0.05709
  143        247     0.04927
  144        260     0.05318
  145        276     0.05087
  146        248     0.05223
  147        268     0.04865
  148        247     0.05393
  149        277     0.05316
  150        256     0.05631
  151        274     0.06241
  152        257     0.04660
  153        245     0.04611
  154        240     0.05870
  155        246     0.04162
  156        231     0.04589
  157        236     0.05889
  158        256     0.03732
  159        217     0.03050
  160        260     0.05128
  161        225     0.03440
  162        230     0.03427
  163        267     0.04668
  164        259     0.04996
  165        237     0.04233
  166        271     0.04787
  167        240     0.04227
  168        248     0.04239
  169        234     0.03486
  170        214     0.03336
  171        234     0.05147
  172        263     0.03746
  173        210     0.04193
  174        243     0.04175
  175        255     0.04610
  176        197     0.04249
  177        254     0.03992
  178        232     0.04625
  179        215     0.03251
  180        259     0.04991
  181        258     0.03960
  182        242     0.04256
  183        226     0.04753
  184        239     0.05590
  185        212     0.03019
  186        227     0.02867
  187        238     0.04002
  188        230     0.04705
  189        225     0.03517
  190        225     0.03281
  191        220     0.03483
  192        232     0.04241
  193        230     0.04507
  194        221     0.04437
  195        206     0.04148
  196        200     0.05188
  197        230     0.03881
  198        213     0.03804
  199        213     0.04326
  200        218     0.03238
  201        207     0.04229
  202        230     0.03612
  203        224     0.03428
  204        202     0.03449
  205        231     0.03319
  206        216     0.03738
  207        232     0.03674
  208        223     0.02993
  209        224     0.03258
  210        216     0.03049
  211        204     0.03535
  212        209     0.03274
  213        226     0.03661
  214        173     0.02505
  215        197     0.04803
  216        203     0.03835
  217        196     0.03850
  218        247     0.03827
  219        190     0.03354
  220        207     0.02616
  221        206     0.02892
  222        208     0.03485
  223        203     0.03754
  224        192     0.03619
  225        209     0.03012
  226        214     0.03843
  227        232     0.03023
  228        203     0.03639
  229        206     0.04295
  230        186     0.03516
  231        190     0.03089
  232        195     0.02747
  233        204     0.03003
  234        179     0.03513
  235        215     0.03124
  236        185     0.02872
  237        222     0.04045
  238        209     0.02764
  239        206     0.03139
  240        198     0.03752
  241        187     0.03967
  242        185     0.02861
  243        183     0.03895
  244        190     0.02810
  245        201     0.03744
  246        198     0.03362
  247        220     0.03378
  248        196     0.03834
  249        189     0.02891
  250        181     0.03055
  251        199     0.02812
  252        214     0.03413
  253        195     0.03355
  254        200     0.03312
  255        200     0.03139
  256        197     0.02761
  257        196     0.03343
  258        212     0.03245
  259        213     0.03120
  260        206     0.03047
  261        173     0.02973
  262        206     0.03068
  263        191     0.03885
  264        190     0.02864
  265        194     0.03483
  266        191     0.03111
  267        211     0.03753
  268        196     0.03631
  269        174     0.03694
  270        202     0.03328
  271        190     0.03606
  272        183     0.03173
  273        195     0.03580
  274        183     0.02811
  275        191     0.03479
  276        179     0.02706
  277        182     0.03162
  278        171     0.02899
  279        180     0.03328
  280        180     0.02701
  281        177     0.03417
  282        154     0.02866
  283        154     0.03453
  284        155     0.02855
  285        169     0.03173
  286        163     0.02766
  287        164     0.03302
  288        176     0.03666
  289        130     0.02044
  290        155     0.03660
  291        119     0.02032
  292        138     0.02819
  293        127     0.02376
  294        115     0.01703
  295        103     0.01559
  296        106     0.02558
  297         99     0.01714
  298         92     0.02804
  299        111     0.02915
  300         78     0.02241
  301         92     0.02583
  302         90     0.02194
  303         96     0.02268
  304         75     0.01777
  305         93     0.01516
  306         73     0.02526
  307         85     0.01380
  308         80     0.01983
  309         80     0.01827
  310         66     0.02125
  311         70     0.02461
  312         70     0.03722
  313         63     0.02473
  314         65     0.02354
  315         62     0.01988
  316         59     0.02128
  317         52     0.01537
  318         54     0.02421
  319         56     0.02111
  320         50     0.01749
  321         55     0.01513
  322         49     0.01982
  323         59     0.02608
  324         46     0.01352
  325         58     0.02390
  326         45     0.01456
  327         54     0.02206
  328         40     0.02347
  329         44     0.01849
  330         43     0.01917
  331         50     0.01975
  332         40     0.02052
  333         42     0.01226
  334         41     0.01146
  335         35     0.01946
  336         41     0.02745
  337         44     0.01459
  338         34     0.02036
  339         42     0.02127
  340         41     0.01516
  341         46     0.01992
  342         43     0.01442
  343         34     0.01366
  344         55     0.01707
  345         48     0.01719
  346         39     0.01593
  347         32     0.01732
  348         28     0.01763
  349         34     0.01233
  350         39     0.01404
  351         31     0.01265
  352         31     0.01387
  353         31     0.02106
  354         31     0.01107
  355         39     0.01875
  356         32     0.01743
  357         27     0.01290
  358         27     0.01638
  359         41     0.01888
  360         34     0.01730
  361         28     0.00964
  362         25     0.01577
  363         29     0.00982
  364         21     0.01063
  365         32     0.01271
  366         26     0.01039
  367         24     0.01411
  368         28     0.01443
  369         21     0.01157
  370         33     0.01507
  371         31     0.01505
  372         15     0.01095
  373         22     0.01528
  374         21     0.01089
  375         22     0.00982
  376         19     0.01516
  377         34     0.01749
  378         19     0.01111
  379         22     0.01148
  380         21     0.01741
  381         28     0.01572
  382         26     0.00912
  383         21     0.01137
  384         36     0.02033
  385         20     0.01729
  386         31     0.01468
  387         26     0.01505
  388         25     0.02489
  389         18     0.01129
  390         17     0.00979
  391         15     0.00838
  392         20     0.01645
  393         16     0.01262
  394         20     0.01197
  395         24     0.01213
  396         17     0.01241
  397         23     0.01574
  398         23     0.01201
  399         22     0.01365
  400         20     0.01858
  401         23     0.01682
  402         23     0.01190
  403         19     0.01365
  404         13     0.00823
  405         24     0.01197
  406         13     0.00760
  407         13     0.01053
  408         15     0.01265
  409         12     0.01271
  410         14     0.01118
  411         13     0.01243
  412         22     0.01407
  413         14     0.01271
  414         17     0.01081
  415         15     0.01329
  416         18     0.01073
  417         15     0.00801
  418         12     0.01544
  419         21     0.01537
  420         22     0.00886
  421          9     0.00754
  422         15     0.01161
  423         15     0.01329
  424         16     0.01201
  425         17     0.01107
  426         23     0.01194
  427         15     0.00822
  428         23     0.01495
  429         10     0.00813
  430         26     0.00939
  431          8     0.00715
  432         12     0.01209
  433         15     0.00929
  434         19     0.01638
  435         13     0.01009
  436         13     0.01141
  437          8     0.00719
  438         17     0.01065
  439          6     0.00945
  440         10     0.01350
  441         18     0.00879
  442         15     0.01106
  443         10     0.00713
  444         19     0.01108
  445         15     0.00813
  446         10     0.00710
  447         15     0.00868
  448         12     0.01375
  449         14     0.01148
  450         16     0.00967
  451         12     0.00993
  452         12     0.00757
  453          8     0.00630
  454         10     0.00704
  455          9     0.00680
  456          9     0.01194
  457         13     0.00730
  458          8     0.00669
  459          6     0.01105
  460         15     0.00792
  461         17     0.01133
  462          9     0.01562
  463         11     0.00769
  464          8     0.00703
  465         14     0.00872
  466         10     0.00762
  467          5     0.00639
  468         11     0.00709
  469         13     0.01055
  470         14     0.01285
  471          8     0.01065
  472         11     0.00736
  473          6     0.00616
  474          9     0.01189
  475         10     0.01151
  476          9     0.00710
  477          6     0.01155
  478         11     0.00740
  479          9     0.00981
  480          6     0.00920
  481          3     0.00609
  482         12     0.01386
  483         10     0.00997
  484          5     0.00601
  485          7     0.00675
  486          4     0.00892
  487          2     0.01010
  488          5     0.01329
  489          7     0.00657
  490         10     0.00701
  491          4     0.00653
  492          7     0.01751
  493          8     0.00685
  494          8     0.00706
  495          3     0.01051
  496          9     0.01298
  497          6     0.00730
  498         11     0.00744
  499          2     0.00581
  500          3     0.00643
  501          4     0.00578
  502          7     0.00693
  503          8     0.00685
  504          2     0.00963
  505          6     0.00641
  506          9     0.00794
  507         10     0.00733
  508         10     0.01012
  509          6     0.00670
  510          5     0.00646
  511          5     0.00635
  512          6     0.00670
  513          4     0.00588
  514          3     0.00592
  515          9     0.00608
  516          2     0.00639
  517          6     0.00630
  518          5     0.00982
  519          1     0.00554
  520          2     0.00651
  521          7     0.00998
  522          6     0.00612
  523          6     0.00631
  524          2     0.00567
  525          4     0.00602
  526          3     0.00849
  527          2     0.00585
  528          5     0.00996
  529          3     0.00595
  530          4     0.01120
  531          3     0.00575
  532          6     0.00589
  533          6     0.00620
  534          2     0.00606
  535          4     0.00624
  536          3     0.00652
  537          3     0.00883
  538          3     0.00636
  539          2     0.00873
  540          7     0.00676
  541          3     0.00601
  542          5     0.00600
  543          4     0.01302
  544          4     0.00604
  546          4     0.00892
  547          3     0.00674
  548          7     0.00878
  549          3     0.00556
  550          3     0.00581
  551          3     0.00592
  552          3     0.00808
  553          2     0.00860
  555          2     0.00598
  556          1     0.00553
  557          1     0.00535
  558          6     0.00606
  559          3     0.00622
  560          2     0.00561
  561          4     0.00571
  562          2     0.00629
  563          4     0.00996
  564          4     0.00615
  565          1     0.00576
  566          2     0.00572
  567          1     0.00553
  568          1     0.00599
  569          2     0.00604
  570          4     0.00603
  571          1     0.00554
  572          1     0.00916
  573          1     0.00921
  574          2     0.00619
  576          2     0.00714
  577          2     0.00571
  578          3     0.00572
  579          1     0.00552
  580          4     0.00614
  581          1     0.00579
  582          5     0.00631
  584          3     0.01063
  585          2     0.00602
  586          2     0.00684
  587          1     0.00580
  588          1     0.00604
  589          2     0.00524
  590          2     0.00554
  591          2     0.00585
  592          2     0.00591
  593          3     0.00528
  595          1     0.00601
  596          4     0.00603
  599          1     0.00593
  600          2     0.00558
  601          2     0.00554
  602          3     0.00566
  604          2     0.00598
  605          3     0.00822
  606          1     0.00544
  607          2     0.00582
  608          1     0.00574
  610          1     0.00537
  611          4     0.00872
  612          2     0.00579
  613          1     0.00559
  614          2     0.00576
  616          1     0.00560
  619          1     0.00560
  620          2     0.01498
  622          4     0.01051
  623          3     0.00608
  624          2     0.00569
  625          4     0.00986
  627          1     0.00562
  628          1     0.00571
  631          1     0.00589
  632          1     0.00566
  634          1     0.00576
  635          1     0.00550
  636          3     0.01298
  637          3     0.00596
  639          3     0.00564
  640          2     0.00544
  641          1     0.00577
  643          1     0.00598
  644          1     0.00852
  646          1     0.00596
  647          1     0.00587
  648          1     0.00553
  649          2     0.00815
  650          3     0.00567
  652          2     0.00588
  653          2     0.00576
  654          1     0.00578
  655          2     0.00959
  656          1     0.00853
  657          1     0.00583
  658          1     0.00569
  659          1     0.00561
  660          1     0.00586
  661          2     0.00588
  666          1     0.00578
  667          1     0.00602
  668          1     0.00557
  672          1     0.00554
  676          1     0.00567
  679          1     0.00558
  682          1     0.00514
  684          2     0.00632
  685          1     0.00554
  686          1     0.00578
  690          1     0.00553
  691          1     0.00567
  693          1     0.00594
  695          1     0.00585
  696          1     0.00830
  697          1     0.00582
  698          1     0.00556
  700          1     0.00563
  702          1     0.00568
  705          1     0.00582
  706          1     0.00573
  707          2     0.00822
  708          1     0.00574
  715          2     0.00534
  718          1     0.00604
  721          1     0.00582
  724          1     0.00568
  731          1     0.00545
  735          1     0.00550
  737          2     0.00598
  738          1     0.00579
  739          1     0.00596
  762          1     0.00543
  766          1     0.00595
  777          1     0.00813
  780          1     0.00971
  782          1     0.00558
  786          1     0.00589
  788          1     0.00570
  790          1     0.00842
  791          1     0.00603
  796          1     0.00568
  797          1     0.00587
  806          1     0.00568
  821          1     0.00578
  825          1     0.00583
  837          2     0.00600
  843          1     0.00572
  844          1     0.00555
  851          1     0.00593
  872          1     0.00573
  873          1     0.00605
  880          1     0.01249
  883          1     0.00564
  889          1     0.00555
  890          1     0.00583
  902          1     0.00579
  931          1     0.00631
 1072          1     0.00549
took 689 iterations
Trial Time:          0.04705
    0          1     0.02285
  155          1     0.03777
  182          1     0.01469
  186          1     0.01029
  193          1     0.01570
  206          1     0.02682
  212          1     0.06763
  213          1     0.02119
  219          1     0.00615
  222          1     0.00586
  223          1     0.00605
  229          1     0.01230
  231          1     0.05795
  232          2     0.10943
  233          4     0.08927
  234          5     0.10157
  235          5     0.11121
  236          5     0.15105
  237          7     0.40486
  238          3     0.11723
  239         12     0.38923
  240          8     0.16722
  241         17     0.43160
  242         20     0.25919
  243         19     0.26812
  244         34     0.35196
  245         45     0.54688
  246         61     0.54758
  247         68     0.62192
  248         97     0.45133
  249        112     0.53025
  250        128     0.90977
  251        151     0.79142
  252        171     0.46717
  253        169     0.40810
  254        218     0.74466
  255        201     0.63647
  256        235     0.57085
  257        243     0.52445
  258        245     0.47895
  259        298     0.44067
  260        284     0.45385
  261        287     0.49342
  262        311     0.49678
  263        309     0.35134
  264        300     0.37647
  265        328     0.45000
  266        319     0.37606
  267        329     0.31850
  268        346     0.36458
  269        360     0.34373
  270        336     0.26646
  271        370     0.47030
  272        342     0.27714
  273        334     0.29301
  274        364     0.20747
  275        357     0.29796
  276        374     0.26823
  277        371     0.21978
  278        342     0.22876
  279        377     0.26746
  280        407     0.21502
  281        346     0.15994
  282        368     0.16349
  283        390     0.20791
  284        323     0.14541
  285        349     0.17349
  286        338     0.12386
  287        351     0.12959
  288        336     0.14027
  289        322     0.12239
  290        335     0.13823
  291        339     0.12253
  292        339     0.10476
  293        361     0.10714
  294        356     0.13598
  295        331     0.09950
  296        358     0.09400
  297        353     0.09752
  298        336     0.13179
  299        333     0.12260
  300        300     0.07901
  301        323     0.10206
  302        328     0.09873
  303        296     0.07639
  304        331     0.10142
  305        296     0.07587
  306        306     0.09148
  307        334     0.09136
  308        304     0.09848
  309        316     0.09041
  310        298     0.08665
  311        291     0.07744
  312        298     0.08750
  313        321     0.07644
  314        269     0.06922
  315        318     0.08699
  316        293     0.08108
  317        305     0.07782
  318        302     0.08058
  319        291     0.08435
  320        263     0.07323
  321        282     0.07712
  322        314     0.07664
  323        290     0.08854
  324        298     0.06994
  325        319     0.08157
  326        287     0.06067
  327        315     0.07274
  328        308     0.07743
  329        262     0.05859
  330        249     0.06690
  331        285     0.05726
  332        276     0.05134
  333        293     0.06451
  334        274     0.05643
  335        311     0.07770
  336        278     0.06332
  337        286     0.06200
  338        259     0.05982
  339        234     0.05092
  340        288     0.05270
  341        299     0.04712
  342        271     0.06636
  343        271     0.06473
  344        270     0.06393
  345        285     0.06440
  346        254     0.04767
  347        291     0.06617
  348        258     0.05839
  349        257     0.06961
  350        280     0.05560
  351        271     0.04546
  352        262     0.05453
  353        277     0.05640
  354        257     0.04682
  355        266     0.04865
  356        252     0.05649
  357        247     0.06466
  358        266     0.05567
  359        261     0.04578
  360        253     0.06054
  361        253     0.05337
  362        255     0.03933
  363        247     0.05037
  364        211     0.03974
  365        280     0.06417
  366        247     0.05903
  367        243     0.05402
  368        258     0.04916
  369        271     0.05976
  370        286     0.04872
  371        232     0.03989
  372        275     0.04243
  373        253     0.05677
  374        261     0.04495
  375        235     0.04282
  376        243     0.03775
  377        229     0.03390
  378        252     0.04269
  379        226     0.04325
  380        212     0.04662
  381        267     0.03828
  382        247     0.04742
  383        237     0.03558
  384        253     0.05169
  385        232     0.03790
  386        262     0.04541
  387        237     0.04595
  388        234     0.04197
  389        246     0.04281
  390        235     0.04654
  391        242     0.03864
  392        234     0.04099
  393        249     0.04775
  394        239     0.04289
  395        294     0.04863
  396        228     0.06410
  397        240     0.03993
  398        226     0.03329
  399        244     0.03379
  400        236     0.03764
  401        247     0.06263
  402        246     0.03447
  403        222     0.04929
  404        218     0.02967
  405        229     0.03841
  406        232     0.04011
  407        227     0.03633
  408        240     0.03955
  409        215     0.03308
  410        212     0.04231
  411        223     0.04034
  412        222     0.02919
  413        226     0.03548
  414        224     0.04354
  415        199     0.03743
  416        228     0.04106
  417        209     0.03506
  418        210     0.03061
  419        222     0.04088
  420        214     0.03265
  421        217     0.03590
  422        241     0.04280
  423        220     0.03198
  424        230     0.03037
  425        212     0.03991
  426        230     0.03639
  427        204     0.02894
  428        222     0.03475
  429        229     0.03323
  430        192     0.03478
  431        200     0.03492
  432        238     0.04088
  433        223     0.03587
  434        188     0.03479
  435        213     0.03739
  436        203     0.02853
  437        212     0.03226
  438        195     0.03336
  439        228     0.03432
  440        209     0.04117
  441        217     0.04482
  442        191     0.03799
  443        208     0.02856
  444        220     0.04335
  445        197     0.03681
  446        198     0.02688
  447        197     0.03286
  448        228     0.03795
  449        176     0.02395
  450        197     0.03139
  451        213     0.04129
  452        194     0.02782
  453        189     0.03190
  454        200     0.04033
  455        189     0.02785
  456        207     0.03509
  457        194     0.02813
  458        215     0.03313
  459        199     0.03775
  460        216     0.02735
  461        201     0.03374
  462        186     0.03097
  463        185     0.03097
  464        200     0.02467
  465        171     0.03704
  466        195     0.02945
  467        186     0.03063
  468        207     0.03346
  469        204     0.03875
  470        186     0.02914
  471        211     0.03988
  472        198     0.02951
  473        212     0.02359
  474        215     0.03620
  475        183     0.02500
  476        193     0.03355
  477        205     0.04102
  478        171     0.03404
  479        180     0.03131
  480        195     0.03546
  481        221     0.03503
  482        167     0.02252
  483        203     0.03568
  484        181     0.03565
  485        196     0.03224
  486        195     0.03308
  487        205     0.02890
  488        197     0.02395
  489        175     0.03748
  490        198     0.03341
  491        190     0.03942
  492        206     0.03290
  493        172     0.03704
  494        167     0.02978
  495        181     0.02393
  496        181     0.03530
  497        162     0.03746
  498        169     0.02904
  499        188     0.02945
  500        200     0.03322
  501        183     0.03415
  502        153     0.02890
  503        178     0.02960
  504        143     0.02520
  505        150     0.02551
  506        146     0.03290
  507        138     0.02365
  508        128     0.02212
  509        146     0.03774
  510        133     0.03302
  511        132     0.03208
  512        122     0.03562
  513        113     0.02342
  514        116     0.02282
  515        111     0.02493
  516        113     0.02123
  517        104     0.02559
  518         98     0.02412
  519         90     0.02394
  520         86     0.01994
  521         87     0.02562
  522         89     0.02070
  523         91     0.02072
  524         88     0.01605
  525         70     0.02342
  526         76     0.02254
  527         64     0.01898
  528         74     0.01615
  529         72     0.02362
  530         81     0.01542
  531         66     0.01858
  532         64     0.01982
  533         60     0.02788
  534         63     0.01952
  535         58     0.02524
  536         60     0.02268
  537         59     0.02204
  538         44     0.01545
  539         57     0.01670
  540         43     0.01658
  541         53     0.03310
  542         42     0.01211
  543         48     0.02482
  544         52     0.02270
  545         43     0.01754
  546         48     0.01418
  547         33     0.01440
  548         59     0.02004
  549         41     0.01864
  550         46     0.01866
  551         41     0.01773
  552         36     0.01407
  553         41     0.01621
  554         44     0.02246
  555         47     0.01462
  556         48     0.02019
  557         32     0.01661
  558         38     0.01912
  559         47     0.02483
  560         38     0.01817
  561         34     0.01660
  562         46     0.01773
  563         45     0.01174
  564         39     0.02216
  565         38     0.01435
  566         32     0.01970
  567         37     0.02087
  568         33     0.01790
  569         28     0.00979
  570         41     0.01648
  571         25     0.01254
  572         27     0.01513
  573         31     0.01195
  574         29     0.01741
  575         28     0.01371
  576         35     0.02419
  577         25     0.01234
  578         36     0.01635
  579         30     0.01417
  580         30     0.00994
  581         36     0.01972
  582         33     0.02126
  583         43     0.02237
  584         31     0.01276
  585         27     0.01293
  586         22     0.00909
  587         21     0.01307
  588         23     0.01188
  589         23     0.00981
  590         24     0.01126
  591         22     0.01083
  592         29     0.01583
  593         14     0.01028
  594         33     0.01397
  595         21     0.01160
  596         19     0.01265
  597         20     0.01438
  598         19     0.00960
  599         33     0.01515
  600         22     0.01272
  601         26     0.02106
  602         23     0.01469
  603         20     0.01305
  604         20     0.01716
  605         31     0.01717
  606         11     0.01449
  607         29     0.02311
  608         24     0.00963
  609         23     0.01637
  610         20     0.00908
  611         14     0.01096
  612         31     0.01362
  613         17     0.01509
  614         22     0.00897
  615         18     0.01604
  616         20     0.01357
  617         21     0.00942
  618         18     0.01341
  619         19     0.01239
  620         17     0.01282
  621         23     0.01875
  622         19     0.01520
  623         16     0.00813
  624         15     0.01522
  625         19     0.01622
  626         20     0.01301
  627         18     0.01261
  628         16     0.01172
  629         19     0.01456
  630         11     0.01197
  631         13     0.00764
  632         12     0.00855
  633         19     0.01328
  634         17     0.01098
  635         14     0.00827
  636         15     0.01055
  637         21     0.01231
  638         19     0.01627
  639          9     0.00657
  640         16     0.00868
  641         13     0.00829
  642         22     0.00872
  643         18     0.01457
  644         12     0.00781
  645         17     0.01001
  646         23     0.01413
  647         12     0.01037
  648         15     0.00854
  649         16     0.00796
  650         14     0.00804
  651         15     0.01013
  652         15     0.01061
  653         12     0.01474
  654         16     0.00896
  655         14     0.01183
  656         16     0.01377
  657          9     0.01383
  658         14     0.00739
  659          7     0.00577
  660          6     0.00646
  661          9     0.00961
  662         15     0.01385
  663         15     0.01271
  664         19     0.00903
  665         15     0.00859
  666         15     0.00782
  667          5     0.00867
  668         12     0.00829
  669          9     0.01186
  670         11     0.00816
  671         12     0.01108
  672         14     0.01111
  673         15     0.00980
  674         13     0.01020
  675         19     0.00960
  676          6     0.00665
  677          9     0.00649
  678         12     0.00918
  679         13     0.01097
  680         12     0.01024
  681          6     0.00628
  682          4     0.00617
  683         10     0.01727
  684          8     0.00705
  685         11     0.00693
  686         10     0.00671
  687         10     0.00713
  688         11     0.00733
  689         22     0.03689
  690          9     0.00701
  691         12     0.01425
  692          6     0.00777
  693          5     0.00584
  694         17     0.01769
  695          6     0.00976
  696          5     0.00630
  697          8     0.00696
  698          3     0.00603
  699         12     0.01140
  700          3     0.00614
  701          7     0.00651
  702          6     0.00735
  703          9     0.01154
  704          7     0.00919
  705          6     0.00645
  706          7     0.01616
  707          5     0.00632
  708          6     0.01069
  709          7     0.00988
  710          8     0.00811
  711          8     0.00683
  712          7     0.00647
  713          4     0.01616
  714          6     0.00656
  715          6     0.00651
  716          4     0.01247
  717          7     0.01034
  718          4     0.00645
  719         13     0.00945
  720          7     0.00681
  721          8     0.00680
  722          8     0.00914
  723          6     0.00615
  724          8     0.00693
  725          3     0.00977
  726          8     0.00670
  727          3     0.00611
  728          5     0.00599
  729          3     0.00567
  730          3     0.00839
  731          6     0.00624
  732          7     0.00683
  733          5     0.00594
  734          7     0.00635
  735          7     0.00709
  736          7     0.00792
  737          2     0.00577
  738          5     0.00590
  739          4     0.00648
  740          3     0.00608
  741          5     0.00584
  742          3     0.00882
  743          2     0.00594
  744          4     0.00575
  745          2     0.00527
  746          3     0.00570
  747          8     0.00976
  748          2     0.00530
  749          5     0.00601
  750          4     0.00571
  751          3     0.00893
  752          2     0.00520
  753          4     0.00603
  754          1     0.00566
  755          4     0.00539
  756          3     0.01001
  757          4     0.00590
  759          6     0.00875
  760          1     0.00526
  761          6     0.01163
  762          4     0.00629
  763          3     0.00616
  764          2     0.00573
  765          4     0.01139
  766          4     0.00617
  767          5     0.01447
  768          2     0.00554
  769          5     0.00715
  770          2     0.00551
  771          6     0.01278
  772          3     0.00631
  773          3     0.00617
  774          2     0.00582
  775          2     0.00576
  776          4     0.00609
  777          4     0.00633
  779          1     0.00574
  780          4     0.00619
  781          2     0.00825
  782          3     0.00582
  783          2     0.00589
  785          2     0.00700
  786          1     0.00530
  787          2     0.00581
  788          3     0.00580
  790          1     0.00577
  791          2     0.00589
  792          3     0.00894
  794          3     0.01030
  795          3     0.00598
  796          2     0.00583
  797          2     0.00681
  798          1     0.00606
  799          3     0.00560
  800          4     0.01210
  801          3     0.00604
  802          1     0.00581
  803          2     0.00563
  804          1     0.00572
  805          3     0.00582
  806          1     0.00594
  807          3     0.00621
  809          3     0.00555
  810          1     0.00593
  811          3     0.00600
  812          2     0.00582
  813          4     0.00606
  814          2     0.00558
  815          1     0.00809
  816          1     0.00575
  819          2     0.00583
  821          1     0.00589
  822          2     0.00584
  823          3     0.00569
  824          2     0.00588
  826          5     0.01517
  827          1     0.00582
  828          2     0.00591
  829          2     0.00571
  830          2     0.00541
  831          2     0.00834
  833          1     0.00545
  835          1     0.00598
  836          1     0.00580
  839          1     0.00559
  841          3     0.00553
  842          1     0.00557
  843          3     0.00870
  844          2     0.00594
  845          3     0.00818
  846          2     0.00902
  847          1     0.00561
  848          1     0.00577
  849          1     0.00598
  850          5     0.01166
  852          1     0.00901
  853          2     0.00578
  856          1     0.00564
  857          1     0.00579
  858          2     0.00595
  861          1     0.00600
  862          1     0.00543
  864          4     0.00583
  865          1     0.00601
  866          3     0.00904
  870          2     0.00873
  871          3     0.00572
  872          2     0.00570
  873          1     0.00578
  876          2     0.00968
  877          3     0.00583
  879          1     0.00561
  882          3     0.00590
  885          1     0.00545
  887          2     0.00549
  894          1     0.00574
  901          1     0.00579
  902          1     0.00937
  903          2     0.00604
  907          2     0.00561
  909          1     0.00532
  911          1     0.00578
  912          1     0.00581
  913          1     0.00594
  915          1     0.00575
  916          1     0.00582
  917          1     0.00574
  918          1     0.00577
  922          1     0.00529
  924          1     0.00574
  925          1     0.00700
  927          2     0.00583
  935          1     0.00560
  936          1     0.00555
  938          1     0.00554
  942          2     0.00593
  951          1     0.00575
  952          1     0.00564
  953          1     0.00532
  955          1     0.00572
  956          1     0.00570
  957          1     0.00583
  972          1     0.00595
  980          1     0.00562
  995          1     0.00938
  996          1     0.00687
 1005          1     0.00938
 1006          1     0.00598
 1009          1     0.00587
 1011          1     0.00560
 1012          1     0.00564
 1015          1     0.00587
 1018          1     0.00590
 1019          1     0.00607
 1042          1     0.00568
 1043          2     0.00587
 1049          1     0.00579
 1052          1     0.00579
 1058          1     0.00586
 1062          1     0.00566
 1086          2     0.01242
 1089          1     0.00594
 1094          1     0.00566
 1105          1     0.00536
 1112          1     0.00580
 1123          1     0.00578
 1137          1     0.00662
 1278          1     0.00548
took 690 iterations
Trial Time:          0.04721
    0          1     0.05751
    4          2     0.18616
    5          1     0.02547
    7          1     0.09232
    8          5     0.18195
    9          1     0.07517
   11          4     0.23133
   12          4     0.14001
   13          6     0.17282
   14          6     0.29600
   15         13     0.21302
   16          9     0.32352
   17         17     0.24940
   18         22     0.38203
   19         23     0.38604
   20         31     0.44276
   21         41     0.36304
   22         52     0.95841
   23         83     0.60320
   24        105     0.75612
   25        121     0.51798
   26        123     0.52986
   27        182     0.55348
   28        167     0.47322
   29        199     0.67454
   30        230     0.53065
   31        207     0.43358
   32        241     0.58101
   33        233     0.79914
   34        308     0.50238
   35        333     0.69926
   36        281     0.48641
   37        310     0.45086
   38        320     0.51451
   39        315     0.42950
   40        335     0.34186
   41        318     0.48276
   42        360     0.37300
   43        359     0.28800
   44        357     0.31092
   45        340     0.30405
   46        380     0.37078
   47        331     0.32720
   48        360     0.23505
   49        350     0.24803
   50        317     0.21768
   51        340     0.31408
   52        376     0.24882
   53        348     0.19998
   54        361     0.24674
   55        356     0.16356
   56        343     0.23596
   57        367     0.15106
   58        358     0.17685
   59        372     0.18816
   60        334     0.14840
   61        354     0.21344
   62        348     0.13692
   63        371     0.13233
   64        330     0.10918
   65        306     0.13850
   66        343     0.13652
   67        342     0.12571
   68        332     0.10397
   69        336     0.11934
   70        319     0.12247
   71        334     0.10790
   72        296     0.09051
   73        322     0.11069
   74        326     0.10272
   75        336     0.11629
   76        315     0.09874
   77        338     0.09956
   78        311     0.10038
   79        349     0.11802
   80        315     0.08427
   81        315     0.09806
   82        313     0.08767
   83        310     0.08594
   84        285     0.08798
   85        321     0.08345
   86        316     0.08071
   87        296     0.07782
   88        311     0.07837
   89        275     0.07732
   90        288     0.07989
   91        317     0.09231
   92        290     0.07134
   93        289     0.07392
   94        311     0.08597
   95        305     0.08524
   96        276     0.08140
   97        318     0.07756
   98        290     0.08522
   99        303     0.07290
  100        282     0.07629
  101        294     0.07214
  102        279     0.07508
  103        275     0.05582
  104        307     0.06525
  105        266     0.05257
  106        283     0.06828
  107        290     0.09414
  108        289     0.08071
  109        266     0.05505
  110        300     0.06170
  111        298     0.06940
  112        267     0.05589
  113        293     0.06535
  114        318     0.06976
  115        303     0.05573
  116        273     0.05011
  117        291     0.06753
  118        292     0.06566
  119        268     0.05513
  120        271     0.05652
  121        271     0.06385
  122        256     0.05084
  123        258     0.07091
  124        282     0.04630
  125        244     0.05299
  126        295     0.05758
  127        256     0.06629
  128        248     0.05826
  129        259     0.05993
  130        258     0.04965
  131        280     0.05695
  132        243     0.04325
  133        248     0.05613
  134        259     0.07068
  135        251     0.05742
  136        265     0.06075
  137        236     0.04377
  138        222     0.04273
  139        236     0.06201
  140        270     0.05783
  141        262     0.04621
  142        254     0.04729
  143        230     0.05266
  144        277     0.05596
  145        263     0.04825
  146        224     0.04469
  147        255     0.06699
  148        259     0.04180
  149        263     0.04553
  150        246     0.05737
  151        228     0.03777
  152        265     0.05331
  153        226     0.03362
  154        236     0.04072
  155        258     0.04702
  156        245     0.04175
  157        245     0.04033
  158        231     0.02987
  159        263     0.04574
  160        249     0.04529
  161        241     0.04099
  162        250     0.05024
  163        252     0.04728
  164        229     0.04662
  165        238     0.03843
  166        230     0.04171
  167        220     0.04042
  168        242     0.03669
  169        224     0.04485
  170        253     0.05028
  171        229     0.05618
  172        210     0.03007
  173        258     0.04389
  174        244     0.03895
  175        236     0.03792
  176        247     0.05278
  177        261     0.03687
  178        235     0.04315
  179        249     0.04996
  180        237     0.04293
  181        228     0.05499
  182        216     0.04011
  183        223     0.04497
  184        218     0.03103
  185        220     0.04026
  186        238     0.03816
  187        241     0.04772
  188        223     0.03492
  189        202     0.03210
  190        237     0.04305
  191        236     0.04173
  192        223     0.03376
  193        186     0.03297
  194        183     0.04094
  195        209     0.04256
  196        208     0.03784
  197        214     0.03312
  198        234     0.04060
  199        211     0.03672
  200        212     0.03297
  201        230     0.03803
  202        218     0.03248
  203        237     0.04068
  204        189     0.03944
  205        219     0.04045
  206        209     0.03283
  207        202     0.04176
  208        207     0.03741
  209        208     0.03354
  210        223     0.04035
  211        205     0.03083
  212        205     0.03762
  213        217     0.03411
  214        210     0.03795
  215        199     0.03622
  216        200     0.02556
  217        196     0.03361
  218        205     0.04052
  219        187     0.02955
  220        238     0.04459
  221        231     0.03621
  222        195     0.03046
  223        176     0.03543
  224        195     0.03448
  225        198     0.03783
  226        171     0.03837
  227        215     0.03309
  228        206     0.03573
  229        211     0.02877
  230        209     0.03311
  231        195     0.02898
  232        195     0.03467
  233        194     0.02852
  234        228     0.02956
  235        193     0.03067
  236        210     0.02622
  237        218     0.03353
  238        199     0.02540
  239        180     0.03416
  240        182     0.03718
  241        180     0.04000
  242        183     0.02516
  243        187     0.03961
  244        200     0.02349
  245        171     0.02971
  246        219     0.03046
  247        188     0.04271
  248        181     0.02647
  249        205     0.02939
  250        192     0.02531
  251        221     0.03565
  252        207     0.04371
  253        198     0.02756
  254        215     0.03344
  255        184     0.03637
  256        186     0.02326
  257        195     0.03434
  258        202     0.03582
  259        216     0.04015
  260        190     0.02717
  261        183     0.03528
  262        186     0.03040
  263        199     0.03896
  264        178     0.03389
  265        180     0.03077
  266        210     0.03481
  267        164     0.03545
  268        194     0.02733
  269        191     0.02911
  270        174     0.03228
  271        214     0.03024
  272        184     0.02814
  273        186     0.03445
  274        181     0.02865
  275        163     0.03240
  276        155     0.03249
  277        165     0.01921
  278        147     0.03235
  279        168     0.03148
  280        131     0.02591
  281        153     0.02179
  282        169     0.03079
  283        163     0.04541
  284        150     0.02488
  285        130     0.02916
  286        122     0.02250
  287        132     0.02043
  288        126     0.03158
  289        106     0.02594
  290        110     0.02746
  291         97     0.02065
  292         90     0.01994
  293        100     0.02133
  294        115     0.02413
  295        110     0.02497
  296         86     0.02696
  297         77     0.02322
  298         74     0.01782
  299         87     0.01887
  300         82     0.03126
  301         76     0.01802
  302         72     0.02572
  303         77     0.01779
  304         71     0.01954
  305         56     0.01681
  306         66     0.01643
  307         69     0.02658
  308         55     0.02099
  309         63     0.02112
  310         63     0.01655
  311         79     0.03564
  312         58     0.02293
  313         46     0.01780
  314         64     0.02798
  315         45     0.02303
  316         56     0.01888
  317         42     0.01641
  318         44     0.01784
  319         45     0.01658
  320         41     0.01531
  321         39     0.01367
  322         33     0.01429
  323         51     0.01745
  324         51     0.01888
  325         47     0.01700
  326         44     0.01544
  327         50     0.01887
  328         50     0.01878
  329         38     0.02333
  330         38     0.01300
  331         39     0.01501
  332         37     0.02099
  333         45     0.01719
  334         39     0.01889
  335         45     0.02690
  336         33     0.01716
  337         46     0.01533
  338         43     0.01413
  339         37     0.01649
  340         42     0.01930
  341         41     0.01227
  342         44     0.01495
  343         27     0.01684
  344         25     0.00906
  345         38     0.01495
  346         30     0.01670
  347         40     0.02207
  348         29     0.01011
  349         21     0.00954
  350         39     0.01923
  351         31     0.01770
  352         27     0.01202
  353         21     0.01438
  354         35     0.02219
  355         35     0.01715
  356         32     0.01414
  357         23     0.00888
  358         27     0.01328
  359         32     0.01542
  360         32     0.01351
  361         31     0.01058
  362         22     0.01068
  363         27     0.01286
  364         23     0.01270
  365         28     0.01422
  366         19     0.01598
  367         36     0.01798
  368         29     0.01520
  369         27     0.00972
  370         20     0.01010
  371         16     0.00914
  372         20     0.01110
  373         19     0.01485
  374         20     0.01480
  375         23     0.01440
  376         18     0.01628
  377         27     0.01520
  378         30     0.01394
  379         22     0.00922
  380         17     0.01513
  381         33     0.02246
  382         30     0.02374
  383         30     0.01769
  384         24     0.01633
  385         18     0.01362
  386         16     0.00874
  387         28     0.00958
  388         17     0.01381
  389         22     0.01289
  390         20     0.01325
  391         12     0.00799
  392         19     0.01696
  393         20     0.01302
  394         26     0.01449
  395         12     0.01194
  396         11     0.01292
  397         18     0.00892
  398         21     0.01013
  399         21     0.01594
  400         17     0.01222
  401         13     0.00836
  402         14     0.00855
  403         21     0.01235
  404         16     0.01140
  405         19     0.01388
  406         10     0.00700
  407         18     0.00947
  408         13     0.00755
  409         13     0.01293
  410         14     0.01014
  411         22     0.01244
  412         17     0.01760
  413         15     0.01929
  414         22     0.01204
  415         15     0.01308
  416         18     0.00908
  417         19     0.00861
  418         14     0.00936
  419         19     0.01064
  420         10     0.00714
  421         16     0.00811
  422         11     0.00743
  423         13     0.00755
  424         25     0.01697
  425         15     0.01151
  426         17     0.01475
  427         17     0.01042
  428         11     0.01044
  429         14     0.01205
  430         11     0.01100
  431         17     0.00814
  432         14     0.00780
  433         15     0.00978
  434         17     0.01035
  435         13     0.00930
  436         20     0.01815
  437          4     0.00615
  438          9     0.01202
  439         15     0.01086
  440         12     0.01340
  441          7     0.00683
  442         13     0.01310
  443         15     0.00789
  444          7     0.00673
  445         15     0.01007
  446         12     0.00775
  447         12     0.01007
  448         15     0.00792
  449          9     0.00913
  450         14     0.00795
  451          9     0.01218
  452         13     0.00822
  453          9     0.00705
  454          9     0.00879
  455          6     0.00688
  456         12     0.01039
  457         11     0.01246
  458         18     0.00973
  459         11     0.00732
  460         14     0.00874
  461          8     0.00720
  462         13     0.00904
  463          8     0.01667
  464          9     0.00709
  465         13     0.01154
  466          7     0.00707
  467          5     0.01340
  468          9     0.00872
  469          6     0.00873
  470         10     0.00725
  471          6     0.00643
  472         15     0.01541
  473          7     0.00857
  474         14     0.01575
  475          7     0.00688
  476          9     0.00720
  477          3     0.00619
  478          5     0.00557
  479          6     0.00785
  480          7     0.00738
  481          6     0.00898
  482          4     0.00655
  483          2     0.00900
  484          7     0.01056
  485          7     0.01357
  486          8     0.00709
  487          9     0.00676
  488          6     0.00590
  489          7     0.00665
  490          4     0.00612
  491         12     0.01322
  492          4     0.00664
  493          5     0.00687
  494          7     0.01193
  495          7     0.00647
  496          7     0.01563
  497          7     0.00637
  498          7     0.00669
  499          6     0.00659
  500          7     0.00878
  501          8     0.00759
  502          3     0.00609
  503          7     0.00636
  504          7     0.00718
  505          7     0.00652
  506          2     0.00593
  507          4     0.00668
  508          5     0.00978
  509          5     0.00670
  510          2     0.00589
  511          4     0.00598
  512          4     0.00574
  513          7     0.00679
  514          4     0.00749
  515          6     0.00645
  516          4     0.00652
  517          5     0.00894
  518          2     0.00598
  519          1     0.00582
  520          2     0.00511
  521          7     0.00690
  522          4     0.00627
  523          7     0.01107
  524          2     0.00552
  525          6     0.00652
  527          2     0.00613
  528          5     0.00912
  529          2     0.00612
  530          5     0.00609
  531          6     0.00766
  532          6     0.01342
  533          3     0.00605
  534          4     0.00639
  535          3     0.00709
  536          4     0.00619
  537          2     0.00566
  538          3     0.01277
  539          3     0.00597
  540          6     0.00770
  541          2     0.00583
  542          5     0.00872
  543          4     0.00605
  544          2     0.00832
  545          4     0.00842
  546          4     0.00587
  547          2     0.00555
  548          2     0.00600
  549          2     0.00536
  550          3     0.00595
  551          4     0.00624
  553          3     0.00564
  554          4     0.00638
  556          2     0.00799
  558          3     0.00594
  559          5     0.00901
  560          3     0.00589
  561          4     0.00862
  562          1     0.00565
  563          1     0.00579
  564          2     0.00557
  565          1     0.00909
  566          5     0.00612
  567          1     0.00569
  568          1     0.00685
  569          1     0.00588
  570          1     0.00598
  571          1     0.00598
  572          1     0.00547
  573          2     0.00833
  574          1     0.00553
  575          1     0.00600
  576          1     0.00591
  577          2     0.00609
  578          3     0.00943
  579          3     0.00799
  580          1     0.00562
  582          2     0.00619
  583          4     0.00613
  584          2     0.00561
  585          1     0.00567
  586          4     0.00592
  587          1     0.00570
  588          2     0.00523
  590          2     0.00581
  591          1     0.00600
  594          3     0.00577
  595          3     0.00584
  596          1     0.00565
  597          3     0.00588
  598          1     0.00587
  599          1     0.00587
  600          4     0.00696
  601          2     0.00544
  602          4     0.00591
  604          1     0.00582
  606          2     0.00617
  607          3     0.00606
  609          4     0.01887
  610          1     0.00811
  612          1     0.00587
  614          1     0.00561
  616          1     0.00570
  617          3     0.00577
  619          3     0.00588
  621          3     0.00606
  623          2     0.00602
  624          1     0.00657
  625          1     0.00562
  626          2     0.00882
  628          1     0.00541
  629          2     0.00603
  630          2     0.00613
  631          2     0.02634
  632          2     0.00578
  633          1     0.00582
  636          2     0.01052
  637          3     0.00909
  638          1     0.00584
  639          2     0.00591
  641          3     0.00604
  642          1     0.00586
  644          2     0.00811
  647          1     0.00574
  648          3     0.00888
  649          2     0.00604
  650          1     0.00572
  652          3     0.00589
  655          1     0.01065
  656          2     0.00579
  661          1     0.00582
  662          1     0.00538
  663          1     0.00608
  665          1     0.00573
  667          2     0.00575
  673          1     0.00539
  677          1     0.00583
  679          2     0.00594
  680          1     0.00566
  681          1     0.00562
  684          1     0.00539
  685          1     0.00899
  690          1     0.00546
  691          1     0.00575
  694          1     0.00565
  695          1     0.00599
  696          1     0.00853
  697          1     0.00591
  698          1     0.00567
  699          2     0.00608
  700          1     0.00567
  703          1     0.00575
  705          1     0.00564
  713          1     0.00621
  717          1     0.00575
  718          1     0.00573
  719          1     0.00571
  721          1     0.00578
  725          1     0.00586
  726          1     0.00584
  727          1     0.00584
  732          1     0.00584
  735          1     0.00565
  739          1     0.00596
  755          1     0.00588
  758          1     0.00569
  766          1     0.00862
  776          1     0.00886
  777          1     0.00574
  779          1     0.00857
  782          1     0.00582
  785          1     0.00590
  786          1     0.00589
  792          1     0.00564
  793          1     0.00603
  795          1     0.00611
  814          1     0.00602
  825          1     0.00562
  826          1     0.00562
  832          1     0.00583
  833          1     0.00586
  836          1     0.00597
  846          1     0.00593
  869          1     0.01337
  872          2     0.00586
  873          1     0.00605
  883          1     0.00593
  884          1     0.00597
  902          1     0.00577
  920          1     0.00626
 1061          1     0.00554
took 686 iterations
Trial Time:          0.04761
    0          1     0.04306
    1          1     0.08964
    3          1     0.06861
    4          1     0.00558
    6          1     0.02071
    7          1     0.05157
    8          1     0.01389
    9          1     0.01892
   10          1     0.00817
   12          1     0.00973
   14          2     0.14848
   15          2     0.02132
   16          2     0.04783
   17          1     0.01826
   18          4     0.69167
   19          9     0.20635
   20         12     0.10192
   21          9     0.19903
   22         14     0.60534
   23         10     0.12353
   24         13     0.17192
   25         18     0.30543
   26         28     0.40300
   27         33     0.60076
   28         49     0.59514
   29         73     0.64248
   30         79     0.47773
   31        102     0.60581
   32         98     0.40358
   33        122     0.47581
   34        153     0.55431
   35        183     0.61063
   36        199     0.56751
   37        217     0.62909
   38        254     0.68812
   39        264     0.61094
   40        276     0.61177
   41        294     0.58617
   42        277     0.67854
   43        336     0.63082
   44        324     0.48217
   45        335     0.43363
   46        333     0.39690
   47        324     0.34914
   48        369     0.43872
   49        365     0.35166
   50        359     0.34580
   51        381     0.32093
   52        348     0.24880
   53        363     0.37616
   54        370     0.21682
   55        375     0.22896
   56        381     0.25710
   57        366     0.24874
   58        363     0.21886
   59        357     0.23903
   60        371     0.21730
   61        373     0.22144
   62        350     0.16755
   63        341     0.17832
   64        332     0.15540
   65        375     0.18062
   66        359     0.16478
   67        349     0.11065
   68        372     0.13856
   69        318     0.14431
   70        332     0.15728
   71        347     0.13207
   72        328     0.13698
   73        345     0.13554
   74        349     0.11900
   75        324     0.13352
   76        293     0.11097
   77        364     0.11334
   78        328     0.11310
   79        321     0.12129
   80        319     0.09869
   81        313     0.11653
   82        295     0.09234
   83        316     0.09752
   84        335     0.11584
   85        353     0.12735
   86        339     0.08561
   87        327     0.09161
   88        309     0.09004
   89        314     0.08356
   90        304     0.09119
   91        327     0.09219
   92        287     0.08610
   93        304     0.08693
   94        334     0.08177
   95        309     0.09383
   96        283     0.07222
   97        292     0.08086
   98        321     0.08285
   99        284     0.06633
  100        303     0.07179
  101        289     0.07253
  102        320     0.08221
  103        271     0.07612
  104        293     0.07343
  105        292     0.07246
  106        289     0.07364
  107        291     0.06954
  108        284     0.07428
  109        306     0.06256
  110        274     0.05790
  111        253     0.07515
  112        274     0.06199
  113        280     0.06467
  114        319     0.07635
  115        295     0.05985
  116        293     0.07304
  117        269     0.06083
  118        283     0.07008
  119        288     0.06586
  120        263     0.05006
  121        285     0.05878
  122        256     0.06072
  123        289     0.07007
  124        299     0.06375
  125        261     0.05768
  126        285     0.04955
  127        264     0.05777
  128        240     0.05055
  129        271     0.07905
  130        262     0.04106
  131        245     0.04516
  132        276     0.05551
  133        289     0.05496
  134        273     0.04976
  135        277     0.06756
  136        271     0.05777
  137        233     0.04617
  138        263     0.05468
  139        254     0.05599
  140        250     0.04382
  141        256     0.05142
  142        260     0.05785
  143        273     0.05267
  144        218     0.04707
  145        258     0.05668
  146        261     0.04883
  147        258     0.04608
  148        263     0.05059
  149        271     0.05712
  150        260     0.05393
  151        237     0.04573
  152        270     0.03968
  153        284     0.04562
  154        262     0.04951
  155        248     0.04845
  156        245     0.04564
  157        236     0.04566
  158        240     0.03349
  159        265     0.05739
  160        237     0.05536
  161        222     0.04103
  162        248     0.03996
  163        233     0.03412
  164        250     0.03815
  165        257     0.04718
  166        224     0.03981
  167        251     0.04394
  168        234     0.03985
  169        263     0.04563
  170        228     0.04528
  171        237     0.04656
  172        220     0.03360
  173        257     0.04443
  174        239     0.04058
  175        264     0.04514
  176        224     0.04131
  177        236     0.04006
  178        214     0.03676
  179        238     0.04946
  180        226     0.03657
  181        232     0.04405
  182        245     0.05342
  183        268     0.04131
  184        238     0.03289
  185        245     0.04200
  186        241     0.04096
  187        253     0.04908
  188        211     0.04199
  189        224     0.03685
  190        207     0.04136
  191        237     0.04548
  192        240     0.04972
  193        201     0.03739
  194        234     0.04273
  195        220     0.04247
  196        230     0.03670
  197        197     0.03418
  198        236     0.03534
  199        222     0.04446
  200        195     0.03785
  201        216     0.03680
  202        233     0.03354
  203        219     0.04207
  204        219     0.03955
  205        222     0.03781
  206        223     0.03323
  207        230     0.02843
  208        209     0.03887
  209        229     0.03726
  210        212     0.04143
  211        204     0.04288
  212        187     0.03501
  213        218     0.04332
  214        196     0.03267
  215        229     0.03497
  216        195     0.03795
  217        205     0.03075
  218        206     0.02886
  219        224     0.03714
  220        216     0.03799
  221        183     0.04324
  222        210     0.04473
  223        205     0.03544
  224        201     0.03389
  225        203     0.03525
  226        200     0.03302
  227        205     0.04111
  228        206     0.03546
  229        201     0.03258
  230        228     0.03970
  231        199     0.03107
  232        230     0.03087
  233        177     0.02898
  234        194     0.03227
  235        212     0.02604
  236        201     0.03277
  237        228     0.03139
  238        190     0.02822
  239        206     0.03257
  240        202     0.03388
  241        218     0.03256
  242        205     0.04494
  243        198     0.02961
  244        212     0.03624
  245        197     0.03181
  246        211     0.04342
  247        201     0.02496
  248        188     0.03153
  249        190     0.02542
  250        190     0.03367
  251        189     0.03145
  252        171     0.02874
  253        227     0.03561
  254        186     0.02828
  255        172     0.02923
  256        189     0.03871
  257        199     0.04111
  258        196     0.03915
  259        183     0.02499
  260        215     0.02835
  261        216     0.02812
  262        202     0.02762
  263        226     0.03141
  264        196     0.04018
  265        178     0.03999
  266        166     0.02032
  267        174     0.02814
  268        192     0.03351
  269        206     0.03377
  270        187     0.04013
  271        189     0.04116
  272        209     0.02712
  273        205     0.03719
  274        168     0.02670
  275        182     0.03670
  276        167     0.02677
  277        192     0.03482
  278        192     0.03155
  279        187     0.03307
  280        198     0.03357
  281        174     0.03070
  282        183     0.03893
  283        161     0.03457
  284        163     0.02771
  285        153     0.03272
  286        167     0.02980
  287        154     0.03023
  288        134     0.02209
  289        137     0.02480
  290        127     0.02189
  291        122     0.03018
  292        120     0.02445
  293        115     0.02538
  294        125     0.02654
  295        135     0.02835
  296        116     0.02159
  297        105     0.02256
  298         91     0.02092
  299        105     0.03468
  300         88     0.02705
  301         95     0.02584
  302         85     0.02214
  303         82     0.01796
  304         76     0.01665
  305         75     0.02450
  306         61     0.02850
  307         69     0.02335
  308         66     0.02358
  309         80     0.01987
  310         86     0.02209
  311         76     0.02586
  312         58     0.03195
  313         70     0.01982
  314         79     0.01785
  315         61     0.02359
  316         49     0.01770
  317         69     0.01983
  318         42     0.01964
  319         54     0.01606
  320         60     0.01442
  321         52     0.02270
  322         45     0.01820
  323         43     0.02170
  324         39     0.02114
  325         45     0.02757
  326         43     0.01931
  327         49     0.01534
  328         57     0.02150
  329         70     0.02389
  330         38     0.01680
  331         35     0.01500
  332         33     0.01405
  333         50     0.01264
  334         58     0.02229
  335         33     0.01665
  336         46     0.01315
  337         32     0.01389
  338         55     0.02465
  339         32     0.01130
  340         48     0.02621
  341         28     0.00950
  342         38     0.02072
  343         37     0.02121
  344         38     0.01682
  345         43     0.01272
  346         38     0.01875
  347         39     0.01921
  348         37     0.01111
  349         36     0.01873
  350         34     0.01348
  351         32     0.01306
  352         30     0.02346
  353         43     0.01214
  354         35     0.01630
  355         25     0.01216
  356         22     0.01422
  357         28     0.01279
  358         34     0.01923
  359         28     0.00980
  360         29     0.01552
  361         27     0.02103
  362         26     0.01485
  363         29     0.01044
  364         42     0.02055
  365         28     0.01726
  366         28     0.01497
  367         27     0.01396
  368         29     0.01124
  369         31     0.01122
  370         30     0.02027
  371         21     0.00998
  372         19     0.01394
  373         12     0.00812
  374         24     0.01464
  375         23     0.01594
  376         20     0.01225
  377         21     0.01338
  378         22     0.00886
  379         24     0.01075
  380         26     0.01241
  381         26     0.01686
  382         23     0.01478
  383         23     0.01613
  384         20     0.00922
  385         23     0.01769
  386         24     0.02130
  387         24     0.01715
  388         33     0.01886
  389         21     0.01440
  390         23     0.01347
  391         16     0.01272
  392         20     0.01532
  393         18     0.00822
  394         14     0.01248
  395         20     0.00954
  396         15     0.01101
  397         26     0.01332
  398         19     0.02001
  399         25     0.00982
  400         14     0.00909
  401         13     0.01128
  402         16     0.01572
  403         28     0.01120
  404         26     0.01017
  405         10     0.00986
  406         13     0.00865
  407         18     0.01461
  408         21     0.02379
  409         18     0.01161
  410         15     0.01163
  411         19     0.01249
  412         15     0.01036
  413         13     0.01040
  414         20     0.01278
  415         19     0.01115
  416         17     0.00812
  417         14     0.01781
  418         23     0.01632
  419         17     0.00845
  420         15     0.00848
  421         13     0.01388
  422         18     0.00821
  423         16     0.01030
  424         11     0.01250
  425         21     0.01161
  426         20     0.01031
  427         12     0.00973
  428          9     0.00956
  429         14     0.00788
  430         12     0.00770
  431         14     0.01125
  432         14     0.01165
  433         13     0.01135
  434         15     0.01342
  435         20     0.01124
  436          9     0.00987
  437         10     0.00903
  438         16     0.01188
  439         16     0.01070
  440         12     0.01178
  441         12     0.01065
  442          9     0.01076
  443         19     0.00871
  444         13     0.00716
  445         16     0.00839
  446         12     0.01104
  447         16     0.01241
  448         10     0.00908
  449          9     0.01286
  450          9     0.00712
  451         16     0.00815
  452         14     0.00832
  453         10     0.00993
  454         13     0.01241
  455         11     0.01362
  456         11     0.00735
  457          9     0.00730
  458         11     0.00736
  459         10     0.00797
  460         10     0.00774
  461          8     0.00721
  462         12     0.00780
  463         11     0.01769
  464         12     0.00826
  465         10     0.01235
  466          9     0.00698
  467          8     0.00694
  468         12     0.01369
  469         12     0.00761
  470         13     0.01023
  471         15     0.01208
  472          6     0.00956
  473         10     0.00739
  474          6     0.00928
  475          6     0.00615
  476          3     0.00643
  477         18     0.01247
  478          8     0.00882
  479          5     0.01177
  480          8     0.01210
  481          8     0.01340
  482         12     0.00900
  483          5     0.01020
  484          4     0.00626
  485          6     0.00645
  486          5     0.00670
  487          4     0.00675
  488         12     0.01099
  489         11     0.01010
  490          5     0.00896
  491          4     0.00670
  492          4     0.00701
  493          9     0.00720
  494          4     0.01585
  495          7     0.00687
  496          7     0.00665
  497          3     0.00615
  498          5     0.00685
  499          5     0.00587
  500          9     0.00670
  501          7     0.00996
  502          4     0.00657
  503          9     0.01210
  504          8     0.01155
  505          9     0.00724
  506          9     0.00683
  507         11     0.00935
  508          5     0.00718
  509          9     0.01168
  510          8     0.00645
  511          4     0.00606
  512          3     0.00577
  513          7     0.00899
  514          5     0.00616
  515          1     0.00598
  516          4     0.00620
  517          7     0.00652
  518          4     0.00573
  519          7     0.00958
  520          1     0.00602
  521          3     0.00582
  522          2     0.00635
  523          4     0.00563
  524          7     0.00690
  525          5     0.00944
  526          3     0.00861
  527          5     0.00667
  528          3     0.00557
  529          3     0.00584
  530          4     0.01025
  531          3     0.00573
  532          4     0.00609
  533          4     0.00605
  534          3     0.00576
  535          1     0.00572
  536          2     0.00611
  537          4     0.01348
  538          3     0.01038
  539          2     0.00559
  540          4     0.00592
  541          5     0.00746
  542          2     0.00969
  543          1     0.00584
  544          2     0.00551
  545          4     0.00587
  546          8     0.00981
  547          3     0.00634
  548          2     0.00558
  549          4     0.00629
  550          5     0.01167
  551          1     0.00589
  552          3     0.00538
  553          2     0.00601
  554          5     0.00889
  555          1     0.00552
  556          2     0.00590
  557          4     0.00610
  558          3     0.00585
  559          3     0.00692
  561          6     0.00640
  562          3     0.00834
  563          2     0.00550
  564          4     0.00600
  566          2     0.00585
  568          1     0.00589
  569          1     0.00601
  570          1     0.00525
  571          1     0.00774
  572          3     0.00586
  573          4     0.00911
  574          3     0.00587
  575          3     0.00869
  576          2     0.00569
  578          3     0.00601
  579          2     0.00848
  580          1     0.00570
  581          1     0.00611
  582          3     0.00571
  584          4     0.00571
  585          4     0.01107
  586          1     0.00577
  588          2     0.00596
  589          3     0.00726
  590          2     0.00562
  591          2     0.00592
  593          2     0.00592
  594          4     0.00603
  595          2     0.00585
  596          1     0.00547
  600          1     0.00571
  601          1     0.00563
  602          1     0.00578
  603          2     0.00562
  604          3     0.00548
  605          3     0.00940
  606          1     0.00571
  608          2     0.00586
  609          1     0.00581
  610          4     0.00626
  612          1     0.00575
  614          1     0.00568
  615          2     0.00592
  616          1     0.00572
  618          2     0.01319
  619          2     0.00579
  621          1     0.00577
  622          1     0.00587
  623          3     0.01468
  624          2     0.00856
  625          1     0.00571
  626          2     0.00594
  627          2     0.00825
  628          4     0.00857
  629          2     0.00591
  630          2     0.00586
  634          1     0.00524
  635          3     0.00592
  637          3     0.00932
  638          2     0.00554
  639          1     0.00598
  640          1     0.00553
  641          1     0.00570
  642          1     0.00537
  643          1     0.00780
  646          2     0.00580
  648          2     0.00587
  649          2     0.00851
  653          2     0.00588
  654          1     0.00597
  655          2     0.00549
  656          1     0.00578
  657          2     0.00596
  658          1     0.00571
  659          1     0.00850
  660          1     0.00583
  661          1     0.00579
  663          1     0.00561
  667          1     0.00589
  668          2     0.00909
  669          1     0.00577
[...]
 1246          1     0.00550
took 692 iterations
Trial Time:          0.04762
    0          1     0.04799
  149          1     0.03667
  175          1     0.24539
  176          1     0.02679
  177          1     0.14938
  178          1     0.02837
  179          3     0.13601
  180          4     0.05695
  181          7     0.35174
  182          7     0.19661
  183          8     0.20523
  184         10     0.54768
  185          9     0.19128
  186         20     0.50489
  187         22     0.31927
  188         23     0.78997
  189         46     0.51792
  190         53     0.39527
  191         55     0.50918
  192         80     0.49245
  193         99     0.49833
  194        111     0.51476
  195        127     0.46432
  196        164     0.49858
  197        165     0.52316
  198        199     0.89893
  199        197     0.82026
  200        255     0.52166
  201        222     0.41319
  202        230     0.44931
  203        280     0.40920
  204        295     0.45153
  205        310     0.57915
  206        319     0.45613
  207        319     0.32661
  208        306     0.40982
  209        333     0.44632
  210        316     0.50860
  211        375     0.37069
  212        363     0.35034
  213        346     0.40442
  214        337     0.37294
  215        352     0.24525
  216        343     0.30461
  217        351     0.29250
  218        369     0.26494
  219        390     0.33894
  220        337     0.21240
  221        323     0.23322
  222        370     0.21583
  223        374     0.18371
  224        356     0.23677
  225        335     0.16155
  226        343     0.13999
  227        353     0.18200
  228        344     0.17606
  229        387     0.18319
  230        371     0.16838
  231        360     0.14685
  232        343     0.12900
  233        330     0.12973
  234        363     0.11667
  235        341     0.16038
  236        354     0.11838
  237        353     0.12229
  238        341     0.11521
  239        327     0.11209
  240        356     0.09709
  241        311     0.10791
  242        314     0.11785
  243        353     0.10196
  244        300     0.10558
  245        305     0.10698
  246        308     0.09591
  247        326     0.10784
  248        331     0.09104
  249        316     0.08644
  250        292     0.07913
  251        316     0.08477
  252        312     0.09791
  253        321     0.08163
  254        304     0.08396
  255        308     0.09095
  256        337     0.08745
  257        304     0.07611
  258        304     0.07820
  259        297     0.08868
  260        323     0.09300
  261        302     0.07110
  262        299     0.08271
  263        266     0.06744
  264        295     0.08136
  265        287     0.07383
  266        311     0.07986
  267        259     0.06681
  268        308     0.08131
  269        295     0.07268
  270        276     0.07318
  271        267     0.06148
  272        294     0.06642
  273        265     0.06095
  274        283     0.07040
  275        291     0.06556
  276        304     0.06394
  277        260     0.05757
  278        327     0.09080
  279        304     0.06770
  280        292     0.06982
  281        275     0.05687
  282        276     0.06442
  283        279     0.05983
  284        293     0.05970
  285        266     0.05066
  286        292     0.07769
  287        269     0.04967
  288        261     0.06727
  289        280     0.05206
  290        261     0.06449
  291        280     0.05850
  292        265     0.05431
  293        261     0.04299
  294        263     0.06099
  295        273     0.06427
  296        271     0.05627
  297        250     0.06547
  298        262     0.06159
  299        288     0.05896
  300        256     0.05326
  301        227     0.06205
  302        253     0.05538
  303        282     0.05289
  304        246     0.05381
  305        237     0.04156
  306        247     0.03972
  307        262     0.05615
  308        254     0.05428
  309        255     0.05068
  310        232     0.04656
  311        244     0.05029
  312        219     0.04013
  313        262     0.05042
  314        244     0.05003
  315        273     0.05009
  316        231     0.04891
  317        280     0.04622
  318        250     0.04637
  319        247     0.05097
  320        262     0.05175
  321        231     0.04504
  322        217     0.04086
  323        244     0.05351
  324        247     0.04627
  325        233     0.04683
  326        225     0.03519
  327        227     0.03523
  328        256     0.04999
  329        269     0.03791
  330        252     0.04265
  331        233     0.04332
  332        272     0.04585
  333        229     0.04130
  334        227     0.03185
  335        235     0.05922
  336        257     0.05216
  337        235     0.04626
  338        212     0.03211
  339        254     0.05200
  340        240     0.03753
  341        256     0.04619
  342        241     0.04117
  343        257     0.04640
  344        222     0.04194
  345        278     0.03894
  346        233     0.03595
  347        248     0.04406
  348        226     0.04556
  349        223     0.04593
  350        229     0.03686
  351        227     0.03543
  352        212     0.04803
  353        237     0.04157
  354        208     0.03365
  355        230     0.03995
  356        208     0.02383
  357        228     0.03628
  358        225     0.03316
  359        214     0.03586
  360        203     0.03241
  361        230     0.04624
  362        213     0.03658
  363        230     0.03827
  364        215     0.02721
  365        215     0.03252
  366        216     0.03981
  367        194     0.03705
  368        222     0.02991
  369        227     0.03666
  370        218     0.03420
  371        202     0.04499
  372        237     0.03380
  373        209     0.03340
  374        213     0.05149
  375        225     0.03608
  376        206     0.02791
  377        194     0.03006
  378        196     0.03072
  379        222     0.02972
  380        206     0.03064
  381        202     0.04153
  382        217     0.03572
  383        196     0.02620
  384        205     0.03404
  385        203     0.02876
  386        215     0.03906
  387        209     0.02919
  388        220     0.04368
  389        168     0.03190
  390        203     0.03479
  391        197     0.03292
  392        188     0.04179
  393        203     0.03595
  394        187     0.03873
  395        201     0.03112
  396        213     0.03496
  397        216     0.03580
  398        202     0.03829
  399        210     0.03535
  400        203     0.03560
  401        188     0.02861
  402        195     0.02909
  403        227     0.03279
  404        222     0.04100
  405        178     0.03442
  406        176     0.03155
  407        215     0.02737
  408        184     0.02901
  409        181     0.02143
  410        207     0.03932
  411        191     0.03866
  412        187     0.04275
  413        186     0.03882
  414        215     0.03070
  415        195     0.02686
  416        199     0.02702
  417        199     0.03461
  418        216     0.02842
  419        179     0.03921
  420        201     0.02760
  421        211     0.03287
  422        200     0.03368
  423        191     0.03884
  424        179     0.03087
  425        196     0.02920
  426        206     0.03727
  427        200     0.03893
  428        176     0.02457
  429        173     0.03832
  430        185     0.02919
  431        223     0.02876
  432        210     0.02899
  433        192     0.03594
  434        190     0.03407
  435        184     0.03814
  436        175     0.03153
  437        207     0.04027
  438        204     0.03053
  439        189     0.02472
  440        175     0.02752
  441        164     0.03519
  442        184     0.02902
  443        179     0.03233
  444        167     0.02936
  445        185     0.03253
  446        145     0.02626
  447        164     0.02740
  448        159     0.02407
  449        153     0.02829
  450        147     0.02724
  451        152     0.03178
  452        144     0.03198
  453        141     0.02385
  454        125     0.02233
  455        133     0.02396
  456        113     0.02905
  457        104     0.02230
  458        124     0.02687
  459        123     0.02710
  460        109     0.02719
  461        108     0.02068
  462         81     0.02094
  463         94     0.02614
  464         88     0.02024
  465         96     0.02516
  466         88     0.01903
  467         87     0.02052
  468         79     0.02515
  469         88     0.02591
  470         71     0.02174
  471         75     0.01672
  472         66     0.02312
  473         65     0.01911
  474         70     0.02488
  475         74     0.02247
  476         60     0.01673
  477         55     0.02102
  478         53     0.02420
  479         56     0.01866
  480         56     0.01996
  481         54     0.01657
  482         52     0.02075
  483         54     0.02195
  484         49     0.02950
  485         51     0.01336
  486         57     0.02448
  487         50     0.01444
  488         46     0.01652
  489         55     0.02220
  490         50     0.02113
  491         47     0.01274
  492         46     0.01832
  493         54     0.02235
  494         44     0.02014
  495         38     0.01751
  496         50     0.01927
  497         42     0.01653
  498         41     0.01325
  499         44     0.01204
  500         47     0.02129
  501         34     0.01619
  502         60     0.03012
  503         38     0.01444
  504         40     0.02314
  505         35     0.01148
  506         40     0.01713
  507         33     0.01365
  508         33     0.00998
  509         49     0.01363
  510         31     0.01558
  511         40     0.01146
  512         29     0.02018
  513         34     0.01418
  514         24     0.00921
  515         33     0.02480
  516         37     0.01360
  517         29     0.01318
  518         23     0.01365
  519         24     0.01324
  520         31     0.00982
  521         28     0.01355
  522         22     0.01594
  523         44     0.02170
  524         28     0.01597
  525         29     0.01048
  526         28     0.01443
  527         29     0.01511
  528         34     0.01747
  529         18     0.00848
  530         27     0.01538
  531         35     0.01196
  532         24     0.01303
  533         32     0.01582
  534         31     0.01558
  535         24     0.01973
  536         20     0.01564
  537         24     0.00890
  538         22     0.01468
  539         18     0.00925
  540         21     0.01096
  541         25     0.00937
  542         16     0.00846
  543         25     0.00897
  544         24     0.01421
  545         25     0.01351
  546         20     0.02081
  547         29     0.01154
  548         21     0.01564
  549         21     0.01638
  550         22     0.01571
  551         21     0.01142
  552         24     0.01725
  553         22     0.01003
  554         25     0.00934
  555         19     0.01691
  556         25     0.01333
  557         24     0.01176
  558         18     0.00835
  559         24     0.01208
  560         16     0.00973
  561         17     0.01267
  562         20     0.01423
  563         17     0.01410
  564         16     0.00810
  565         20     0.01104
  566         15     0.01280
  567         12     0.01338
  568         18     0.01682
  569         11     0.01254
  570         28     0.02115
  571         19     0.00854
  572         16     0.01146
  573         24     0.00897
  574         18     0.01146
  575         20     0.01715
  576         17     0.01295
  577         13     0.00826
  578         15     0.01291
  579         15     0.01187
  580         15     0.00892
  581         18     0.01117
  582          8     0.00675
  583         14     0.00771
  584         20     0.01841
  585         17     0.01859
  586         13     0.00847
  587         17     0.00834
  588         17     0.00896
  589         11     0.00651
  590         25     0.00940
  591         14     0.00779
  592         14     0.01012
  593         13     0.01020
  594         17     0.01209
  595          9     0.00911
  596         13     0.00700
  597         15     0.01072
  598         18     0.01673
  599         13     0.00744
  600         14     0.00788
  601         14     0.01198
  602         15     0.01114
  603         11     0.00732
  604          8     0.00878
  605         11     0.00960
  606         16     0.01219
  607         14     0.01379
  608         13     0.00790
  609         13     0.01060
  610         19     0.01187
  611         14     0.00747
  612          9     0.00691
  613         14     0.00869
  614          9     0.01158
  615          9     0.00692
  616         14     0.01239
  617         15     0.00753
  618          7     0.00804
  619          6     0.00736
  620         13     0.00734
  621         10     0.01130
  622         16     0.00836
  623          7     0.00678
  624         10     0.01265
  625         12     0.01196
  626         10     0.00715
  627         10     0.00809
  628          7     0.01064
  629         15     0.00829
  630         12     0.00889
  631         13     0.01631
  632          8     0.00709
  633         10     0.00750
  634         11     0.00719
  635          9     0.00884
  636          8     0.01405
  637          9     0.00704
  638         12     0.01145
  639          9     0.00682
  640          8     0.00956
  641          8     0.01340
  642         12     0.00728
  643          7     0.00667
  644          5     0.00609
  645          6     0.00664
  646          7     0.00625
  647          6     0.01193
  648          8     0.00751
  649          4     0.00590
  650          9     0.00692
  651          6     0.00589
  652          5     0.00715
  653         11     0.00722
  654          7     0.00796
  655          5     0.00645
  656          3     0.00580
  657          5     0.00591
  658          7     0.00641
  659          3     0.00605
  660          8     0.01176
  661          5     0.00590
  662          5     0.00627
  663          5     0.00632
  664          8     0.01674
  665         12     0.00739
  666          9     0.01112
  667          9     0.00684
  668          3     0.00526
  669          6     0.00617
  670          6     0.00586
  671          3     0.00613
  672          5     0.00592
  673          6     0.00596
  674          9     0.00659
  675          5     0.00639
  676          4     0.00523
  677          7     0.00740
  678          7     0.00906
  679          4     0.00542
  680          3     0.00572
  681          5     0.00954
  682          8     0.00649
  683          2     0.00520
  684          4     0.00628
  685          2     0.00545
  686          6     0.00958
  687          6     0.00683
  688          6     0.00638
  689          2     0.00526
  690          4     0.00587
  691          3     0.00567
  692          3     0.00608
  694          5     0.00897
  695          2     0.00575
  696          4     0.00592
  697          3     0.00577
  698          1     0.00518
  699          4     0.00558
  700          5     0.01265
  701          1     0.00545
  702          1     0.00523
  703          4     0.00558
  704          4     0.00528
  705          5     0.00587
  706          6     0.00601
  707          3     0.00528
  708          6     0.00657
  709          2     0.00574
  710          5     0.00998
  711          3     0.00730
  712          5     0.00870
  713          2     0.01417
  714          6     0.00799
  715          1     0.00586
  716          2     0.00577
  717          1     0.00530
  718          2     0.00524
  719          5     0.00566
  720          4     0.00680
  721          5     0.00949
  722          2     0.00533
  723          3     0.00705
  724          4     0.00558
  725          1     0.00527
  728          1     0.00833
  729          1     0.00560
  730          2     0.00591
  731          2     0.00912
  732          2     0.00531
  733          2     0.00788
  734          1     0.00497
  735          3     0.00584
  736          3     0.00561
  737          2     0.00527
  738          1     0.00556
  739          3     0.00506
  740          1     0.00550
  741          2     0.00555
  742          1     0.00522
  743          4     0.00788
  745          1     0.00532
  746          1     0.00536
  747          3     0.00795
  748          2     0.00574
  749          4     0.00936
  750          1     0.00532
  752          3     0.00549
  753          1     0.00497
  754          2     0.00559
  755          1     0.00493
  758          3     0.00516
  759          2     0.00523
  760          3     0.00554
  761          2     0.00517
  763          4     0.00539
  764          3     0.00524
  766          3     0.00561
  769          1     0.00511
  770          4     0.00686
  771          1     0.00542
  773          1     0.00518
  774          3     0.00536
  775          3     0.00816
  776          1     0.00519
  777          1     0.00489
  778          2     0.00559
  779          1     0.00517
  780          2     0.00537
  782          2     0.00507
  783          1     0.00546
  786          2     0.01603
  788          5     0.00841
  789          1     0.00535
  792          4     0.00939
  794          2     0.00640
  795          1     0.00522
  797          3     0.00607
  798          1     0.03160
  799          2     0.00576
  800          2     0.00531
  804          2     0.00801
  805          1     0.00935
  809          3     0.00572
  811          1     0.00595
  812          1     0.00579
  813          2     0.00580
  814          2     0.00523
  815          1     0.00774
  816          1     0.00536
  817          3     0.00803
  818          2     0.00556
  819          1     0.00609
  821          3     0.00624
  824          3     0.00518
  829          1     0.00495
  830          1     0.00536
  831          2     0.01023
  833          2     0.00546
  834          1     0.00548
  837          1     0.00544
  848          2     0.00550
  849          2     0.00503
  850          1     0.00513
  851          1     0.00585
  855          1     0.00523
  856          1     0.00580
  857          1     0.00498
  858          1     0.00545
  859          1     0.00508
  861          1     0.00530
  862          1     0.00822
  867          1     0.00495
  870          1     0.00543
  871          2     0.00884
  872          2     0.00552
  876          1     0.00532
  877          1     0.00579
  879          1     0.00521
  880          1     0.00536
  881          1     0.00540
  887          1     0.00587
  893          1     0.00496
  896          1     0.00539
  899          1     0.00530
  900          1     0.00588
  901          1     0.00521
  908          1     0.00524
  930          1     0.00595
  932          1     0.00525
  941          1     0.00798
  945          2     0.00945
  947          1     0.00529
  951          1     0.00571
  952          1     0.00487
  956          1     0.00795
  961          1     0.00505
  962          1     0.00561
  972          1     0.00514
  989          1     0.00523
  993          1     0.00548
 1002          1     0.00546
 1003          1     0.00571
 1005          1     0.00520
 1009          1     0.00570
 1017          1     0.00589
 1041          1     0.00550
 1046          1     0.01387
 1049          2     0.00538
 1050          1     0.00539
 1051          1     0.00585
 1078          1     0.00555
 1097          1     0.00672
 1238          1     0.00560
took 681 iterations
Trial Time:          0.04721
Average Time:        0.04153
Exiting @ tick 1411517400500 because exiting with last active thread context
