Redirecting stdout to /vol1/msoyturk/gem5/results/sssp/epinions.el/prefetch_DCPTPrefetcher_BIPRP/output.txt
Redirecting stderr to /vol1/msoyturk/gem5/results/sssp/epinions.el/prefetch_DCPTPrefetcher_BIPRP/error.txt
gem5 Simulator System.  http://gem5.org
gem5 is copyrighted software; use the --copyright option for details.

gem5 compiled Apr 26 2020 13:32:47
gem5 started Apr 28 2020 03:18:07
gem5 executing on draco, pid 28865
command line: /vol1/msoyturk/gem5/build/RISCV/gem5.fast -re --outdir=/vol1/msoyturk/gem5/results/sssp/epinions.el/prefetch_DCPTPrefetcher_BIPRP --stdout-file=output.txt --stderr-file=error.txt /vol1/msoyturk/gem5/configs/example/my_se.py -c /vol1/msoyturk/gem5/gapbs/sssp -o '-f /vol1/msoyturk/gem5/gapbs/test/graphs/epinions.el' --caches --l1d_size=2kB --l1i_size=2kB --cpu-type=DerivO3CPU -n 4 --mem-size=512MB --l2cache --l2_size=4kB --l2-hwp-type=DCPTPrefetcher --l2-replacement-policy=BIPRP --l1i_mshrs=4 --l1d_mshrs=4 --l2_mshrs=20 --l1i_write_buffers=8 --l1d_write_buffers=8 --l2_write_buffers=8

info: Standard input is not a terminal, disabling listeners.
Warning: l2-hwp-type is set ( DCPTPrefetcher ), but the current l2 has a default Hardware Prefetcher of type <class 'm5.params.NullSimObject'> , using the specified by the flag option.
Global frequency set at 1000000000000 ticks per second
**** REAL SIMULATION ****
Read Time:           0.54125
Build Time:          0.11170
Graph has 75888 nodes and 508837 directed edges for degree: 6
    0          1     0.03581
    8          1     0.06713
   10          1     0.08865
   12          1     0.11764
   14          1     0.04664
   16          3     0.05415
   17          3     0.04425
   18          4     0.20174
   19          5     0.20167
   20          4     0.38699
   21         10     0.34412
   22         13     0.37120
   23         19     0.33764
   24         26     0.32087
   25         31     0.54450
   26         49     0.47318
   27         75     0.49570
   28         64     0.55086
   29         81     0.39125
   30        111     0.57351
   31        105     0.59118
   32        131     0.51908
   33        154     0.61938
   34        181     0.72630
   35        188     0.72803
   36        193     0.68948
   37        231     0.63826
   38        260     0.54793
   39        263     0.48534
   40        258     0.45772
   41        295     0.58432
   42        278     0.29566
   43        327     0.45648
   44        291     0.48732
   45        297     0.31732
   46        325     0.38059
   47        348     0.39081
   48        320     0.35685
   49        325     0.29495
   50        350     0.30333
   51        347     0.31543
   52        323     0.31672
   53        336     0.25062
   54        366     0.39406
   55        359     0.28354
   56        372     0.30982
   57        348     0.21797
   58        361     0.17373
   59        363     0.25159
   60        392     0.18384
   61        334     0.18106
   62        349     0.18949
   63        335     0.15061
   64        344     0.16811
   65        386     0.15662
   66        342     0.15636
   67        329     0.13790
   68        305     0.10208
   69        386     0.15368
   70        307     0.12969
   71        333     0.11797
   72        376     0.15113
   73        370     0.11449
   74        345     0.09769
   75        337     0.10813
   76        348     0.11169
   77        315     0.07706
   78        342     0.11561
   79        322     0.08212
   80        358     0.09476
   81        303     0.08631
   82        335     0.09205
   83        335     0.09549
   84        349     0.10874
   85        307     0.07234
   86        317     0.06790
   87        315     0.07253
   88        317     0.09278
   89        304     0.08019
   90        311     0.07241
   91        289     0.06026
   92        303     0.10420
   93        298     0.08684
   94        320     0.09802
   95        316     0.06571
   96        302     0.06745
   97        327     0.07226
   98        283     0.08338
   99        278     0.07212
  100        310     0.07069
  101        282     0.06951
  102        292     0.06510
  103        284     0.05626
  104        305     0.07288
  105        279     0.06519
  106        290     0.07175
  107        305     0.08350
  108        303     0.07941
  109        283     0.06420
  110        308     0.07938
  111        292     0.06974
  112        284     0.06016
  113        308     0.06548
  114        258     0.04884
  115        295     0.05769
  116        259     0.06402
  117        276     0.06958
  118        275     0.06314
  119        312     0.07902
  120        281     0.04749
  121        260     0.04654
  122        267     0.04431
  123        295     0.05463
  124        282     0.05016
  125        281     0.05827
  126        288     0.06448
  127        261     0.04748
  128        268     0.05100
  129        256     0.05736
  130        284     0.05954
  131        278     0.05204
  132        279     0.05217
  133        260     0.09482
  134        264     0.04208
  135        255     0.05352
  136        223     0.04233
  137        227     0.03778
  138        228     0.03955
  139        261     0.04109
  140        265     0.06362
  141        263     0.04241
  142        248     0.05294
  143        247     0.04876
  144        263     0.05263
  145        276     0.04783
  146        247     0.04385
  147        269     0.04864
  148        247     0.05890
  149        278     0.04929
  150        254     0.05692
  151        273     0.04588
  152        258     0.05472
  153        243     0.03708
  154        240     0.05319
  155        246     0.04355
  156        231     0.04334
  157        235     0.04137
  158        257     0.04027
  159        219     0.03467
  160        260     0.04943
  161        224     0.02975
  162        230     0.03694
  163        270     0.04057
  164        258     0.05080
  165        236     0.05135
  166        272     0.04761
  167        240     0.04360
  168        248     0.04858
  169        234     0.04176
  170        214     0.03159
  171        234     0.05201
  172        263     0.03481
  173        211     0.03732
  174        244     0.03619
  175        256     0.03637
  176        195     0.03935
  177        254     0.03805
  178        232     0.04595
  179        214     0.03262
  180        260     0.04324
  181        258     0.03331
  182        242     0.04699
  183        226     0.04802
  184        240     0.04541
  185        215     0.03287
  186        227     0.02969
  187        238     0.03903
  188        230     0.03848
  189        226     0.03111
  190        225     0.04516
  191        219     0.02929
  192        230     0.03107
  193        230     0.03538
  194        220     0.03455
  195        206     0.03778
  196        199     0.05663
  197        230     0.03624
  198        213     0.02657
  199        213     0.04335
  200        218     0.03154
  201        207     0.03659
  202        229     0.03398
  203        224     0.03137
  204        202     0.03695
  205        231     0.03315
  206        216     0.03723
  207        230     0.02869
  208        223     0.03240
  209        222     0.02786
  210        215     0.03222
  211        205     0.03733
  212        209     0.03465
  213        226     0.04190
  214        174     0.02518
  215        197     0.04050
  216        204     0.03448
  217        197     0.03819
  218        247     0.03245
  219        190     0.03561
  220        208     0.02535
  221        206     0.03085
  222        208     0.02864
  223        203     0.02872
  224        193     0.03239
  225        209     0.03399
  226        214     0.03456
  227        231     0.03534
  228        203     0.03305
  229        208     0.03965
  230        186     0.03506
  231        191     0.03639
  232        196     0.03134
  233        205     0.03425
  234        179     0.02850
  235        214     0.02937
  236        185     0.02710
  237        222     0.03629
  238        209     0.02365
  239        206     0.03336
  240        198     0.03741
  241        187     0.03369
  242        186     0.03245
  243        183     0.03696
  244        190     0.03676
  245        200     0.02592
  246        199     0.02750
  247        221     0.03612
  248        196     0.03224
  249        188     0.02765
  250        180     0.02880
  251        198     0.02629
  252        214     0.02619
  253        195     0.03211
  254        199     0.03126
  255        199     0.02961
  256        197     0.02695
  257        194     0.03020
  258        211     0.03437
  259        214     0.03331
  260        206     0.03283
  261        173     0.03096
  262        206     0.02919
  263        191     0.03187
  264        189     0.03361
  265        194     0.03619
  266        191     0.03182
  267        212     0.03068
  268        198     0.03429
  269        175     0.03265
  270        201     0.03345
  271        192     0.04000
  272        183     0.03349
  273        195     0.03549
  274        183     0.02712
  275        190     0.03288
  276        179     0.02379
  277        182     0.02694
  278        171     0.02754
  279        179     0.03571
  280        181     0.03218
  281        177     0.03001
  282        154     0.02977
  283        154     0.02573
  284        155     0.02584
  285        169     0.03001
  286        163     0.02572
  287        163     0.02999
  288        175     0.03555
  289        130     0.02204
  290        155     0.03084
  291        119     0.02191
  292        136     0.03406
  293        127     0.02593
  294        115     0.02206
  295        103     0.01797
  296        105     0.02114
  297         98     0.01658
  298         92     0.02081
  299        110     0.02939
  300         78     0.02827
  301         92     0.01862
  302         90     0.02039
  303         96     0.01697
  304         75     0.01719
  305         93     0.01814
  306         74     0.02278
  307         85     0.01396
  308         80     0.01815
  309         80     0.01983
  310         66     0.02314
  311         70     0.02275
  312         70     0.04500
  313         63     0.02372
  314         65     0.02735
  315         62     0.01934
  316         59     0.02609
  317         51     0.01489
  318         54     0.02071
  319         56     0.01680
  320         50     0.02452
  321         55     0.01644
  322         49     0.01884
  323         59     0.02158
  324         46     0.01296
  325         58     0.02486
  326         45     0.01677
  327         54     0.02694
  328         40     0.02152
  329         44     0.02248
  330         43     0.01884
  331         50     0.01562
  332         40     0.01368
  333         42     0.01492
  334         41     0.01705
  335         35     0.01980
  336         41     0.01767
  337         44     0.01345
  338         34     0.01528
  339         42     0.02412
  340         41     0.01353
  341         46     0.01893
  342         43     0.01183
  343         34     0.01144
  344         55     0.01693
  345         48     0.02147
  346         39     0.01313
  347         32     0.01797
  348         28     0.01701
  349         34     0.01212
  350         39     0.01831
  351         31     0.01213
  352         31     0.01149
  353         31     0.01686
  354         31     0.01131
  355         39     0.01633
  356         32     0.01773
  357         27     0.01480
  358         27     0.01730
  359         41     0.01623
  360         34     0.01642
  361         28     0.01002
  362         25     0.01506
  363         29     0.00934
  364         21     0.01096
  365         32     0.01306
  366         26     0.01026
  367         24     0.01844
  368         28     0.01274
  369         21     0.00905
  370         33     0.01873
  371         31     0.01554
  372         16     0.01082
  373         22     0.01689
  374         21     0.01096
  375         22     0.00923
  376         19     0.01377
  377         34     0.01744
  378         19     0.01088
  379         22     0.01190
  380         21     0.01554
  381         28     0.01402
  382         26     0.00922
  383         21     0.01146
  384         36     0.02013
  385         20     0.01984
  386         31     0.01439
  387         26     0.01580
  388         25     0.02076
  389         18     0.01159
  390         17     0.00962
  391         15     0.00870
  392         20     0.02196
  393         16     0.01111
  394         20     0.01486
  395         24     0.01447
  396         17     0.01152
  397         23     0.01492
  398         23     0.01124
  399         22     0.01198
  400         20     0.01951
  401         23     0.01608
  402         23     0.01187
  403         19     0.01749
  404         13     0.00808
  405         24     0.01242
  406         13     0.00851
  407         13     0.00976
  408         15     0.01067
  409         12     0.00790
  410         14     0.01113
  411         13     0.01323
  412         22     0.01240
  413         14     0.01326
  414         17     0.00837
  415         15     0.01830
  416         18     0.00872
  417         15     0.00838
  418         12     0.01891
  419         21     0.01135
  420         22     0.00785
  421          9     0.00727
  422         15     0.00989
  423         15     0.01483
  424         16     0.01456
  425         17     0.01150
  426         23     0.01133
  427         15     0.00835
  428         23     0.01568
  429         10     0.01269
  430         26     0.01166
  431          8     0.00657
  432         12     0.01432
  433         15     0.01072
  434         19     0.01595
  435         13     0.01075
  436         13     0.01209
  437          8     0.00729
  438         17     0.01080
  439          6     0.01067
  440         10     0.01468
  441         18     0.00892
  442         15     0.01019
  443         10     0.00762
  444         19     0.01363
  445         15     0.00831
  446         10     0.00757
  447         15     0.01318
  448         12     0.01611
  449         14     0.01168
  450         16     0.01077
  451         12     0.00975
  452         12     0.00829
  453          8     0.00744
  454         10     0.00723
  455          9     0.00673
  456          9     0.00988
  457         13     0.00789
  458          8     0.00649
  459          6     0.01157
  460         15     0.00826
  461         17     0.00958
  462          9     0.01470
  463         11     0.00791
  464          8     0.00715
  465         14     0.00839
  466         10     0.00707
  467          5     0.00643
  468         11     0.00757
  469         13     0.01125
  470         14     0.01300
  471          8     0.01039
  472         11     0.00751
  473          6     0.00608
  474          9     0.01203
  475         10     0.01227
  476          9     0.00739
  477          6     0.01420
  478         11     0.00774
  479          9     0.00993
  480          6     0.00965
  481          3     0.00576
  482         12     0.01335
  483         10     0.00847
  484          5     0.00643
  485          7     0.00732
  486          4     0.01022
  487          2     0.00689
  488          5     0.01733
  489          7     0.00748
  490         10     0.00785
  491          4     0.00630
  492          7     0.01768
  493          8     0.00760
  494          8     0.00683
  495          3     0.00964
  496          9     0.01222
  497          6     0.00956
  498         11     0.00768
  499          2     0.00613
  500          3     0.00637
  501          4     0.00665
  502          7     0.00735
  503          8     0.00780
  504          2     0.01039
  505          6     0.00630
  506          9     0.00974
  507         10     0.00752
  508         10     0.01077
  509          6     0.00718
  510          5     0.00701
  511          5     0.00667
  512          6     0.00681
  513          4     0.00622
  514          3     0.00527
  515          9     0.00724
  516          2     0.00721
  517          6     0.00592
  518          5     0.00968
  519          1     0.00574
  520          2     0.00608
  521          7     0.00994
  522          6     0.00715
  523          6     0.00733
  524          2     0.00612
  525          4     0.00599
  526          3     0.01070
  527          2     0.00572
  528          5     0.00958
  529          3     0.00594
  530          4     0.01255
  531          3     0.00674
  532          6     0.00661
  533          6     0.00630
  534          2     0.00576
  535          4     0.00678
  536          3     0.00636
  537          3     0.00970
  538          3     0.00634
  539          2     0.00948
  540          7     0.00699
  541          3     0.00633
  542          5     0.00641
  543          4     0.01606
  544          4     0.00644
  546          4     0.00722
  547          3     0.00650
  548          7     0.00980
  549          3     0.00635
  550          3     0.00592
  551          3     0.00632
  552          3     0.00925
  553          2     0.00955
  555          2     0.00621
  556          1     0.00571
  557          1     0.00603
  558          6     0.00682
  559          3     0.01055
  560          2     0.00588
  561          4     0.00649
  562          2     0.00597
  563          4     0.00774
  564          4     0.00646
  565          1     0.00567
  566          2     0.00607
  567          1     0.00589
  568          1     0.00573
  569          2     0.00599
  570          4     0.00582
  571          1     0.00630
  572          1     0.00849
  573          1     0.00852
  574          2     0.00658
  576          2     0.00928
  577          2     0.00600
  578          3     0.00583
  579          1     0.00520
  580          4     0.00629
  581          1     0.00591
  582          5     0.00696
  584          3     0.01141
  585          2     0.00570
  586          2     0.00744
  587          1     0.00572
  588          1     0.00612
  589          2     0.00610
  590          2     0.00590
  591          2     0.00586
  592          2     0.00632
  593          3     0.00558
  595          1     0.00605
  596          4     0.00647
  599          1     0.00601
  600          2     0.00553
  601          2     0.00632
  602          3     0.00590
  604          2     0.00571
  605          3     0.00886
  606          1     0.00598
  607          2     0.00622
  608          1     0.00632
  610          1     0.00635
  611          4     0.01010
  612          2     0.00554
  613          1     0.00600
  614          2     0.00632
  616          1     0.00565
  619          1     0.00585
  620          2     0.01833
  622          4     0.01063
  623          3     0.00636
  624          2     0.00565
  625          4     0.01011
  627          1     0.00607
  628          1     0.00602
  631          1     0.00596
  632          1     0.00586
  634          1     0.00574
  635          1     0.00554
  636          3     0.01267
  637          3     0.00620
  639          3     0.00604
  640          2     0.00576
  641          1     0.00600
  643          1     0.00564
  644          1     0.00965
  646          1     0.00592
  647          1     0.00562
  648          1     0.00579
  649          2     0.00936
  650          3     0.00593
  652          2     0.00595
  653          2     0.00575
  654          1     0.00600
  655          2     0.01187
  656          1     0.00953
  657          1     0.00611
  658          1     0.00554
  659          1     0.00627
  660          1     0.00635
  661          2     0.00664
  666          1     0.00583
  667          1     0.00638
  668          1     0.00702
  672          1     0.00595
  676          1     0.00563
  679          1     0.00615
  682          1     0.00589
  684          2     0.00570
  685          1     0.00618
  686          1     0.00613
  690          1     0.00573
  691          1     0.00519
  693          1     0.00562
  695          1     0.00564
  696          1     0.00875
  697          1     0.00567
  698          1     0.00554
  700          1     0.00595
  702          1     0.00628
  705          1     0.00581
  706          1     0.00616
  707          2     0.00949
  708          1     0.00606
  715          2     0.00582
  718          1     0.00578
  721          1     0.00593
  724          1     0.00610
  731          1     0.00595
  735          1     0.00593
  737          2     0.00630
  738          1     0.00656
  739          1     0.00620
  762          1     0.00616
  766          1     0.00576
  777          1     0.00905
  780          1     0.01063
  782          1     0.00604
  786          1     0.00603
  788          1     0.00559
  790          1     0.00829
  791          1     0.00577
  796          1     0.00652
  797          1     0.00610
  806          1     0.00626
  821          1     0.00571
  825          1     0.00583
  837          2     0.00620
  843          1     0.00586
  844          1     0.00630
  851          1     0.00628
  872          1     0.00617
  873          1     0.00592
  880          1     0.01371
  883          1     0.00666
  889          1     0.00594
  890          1     0.00625
  902          1     0.00612
  931          1     0.00694
 1072          1     0.00527
took 689 iterations
Trial Time:          0.04856
    0          1     0.02389
  155          1     0.04365
  182          1     0.01715
  186          1     0.01284
  193          1     0.02049
  206          1     0.03084
  212          1     0.07743
  213          1     0.01121
  219          1     0.00590
  222          1     0.00570
  223          1     0.00636
  229          1     0.01326
  231          1     0.03887
  232          2     0.09872
  233          4     0.07697
  234          5     0.10222
  235          5     0.10593
  236          5     0.15185
  237          7     0.40539
  238          3     0.11104
  239         12     0.38107
  240          8     0.17963
  241         17     0.45331
  242         20     0.26103
  243         19     0.28485
  244         34     0.37322
  245         45     0.54857
  246         61     0.57784
  247         68     0.63238
  248         97     0.46328
  249        112     0.51451
  250        128     0.70979
  251        151     0.88326
  252        171     0.45310
  253        169     0.43685
  254        217     0.74978
  255        201     0.66453
  256        235     0.51944
  257        243     0.47110
  258        245     0.45722
  259        297     0.44987
  260        283     0.46452
  261        288     0.48914
  262        311     0.46174
  263        309     0.40127
  264        302     0.34173
  265        329     0.43158
  266        319     0.32188
  267        327     0.33036
  268        347     0.31887
  269        361     0.29524
  270        336     0.23711
  271        371     0.48653
  272        342     0.26717
  273        333     0.29818
  274        363     0.21141
  275        357     0.29750
  276        374     0.23680
  277        372     0.22148
  278        342     0.19964
  279        376     0.27175
  280        406     0.19682
  281        345     0.15206
  282        366     0.17767
  283        389     0.17657
  284        325     0.13192
  285        349     0.17072
  286        337     0.11167
  287        349     0.11482
  288        337     0.14337
  289        321     0.13042
  290        338     0.11869
  291        337     0.11298
  292        340     0.10854
  293        363     0.10022
  294        358     0.12789
  295        331     0.10035
  296        360     0.09666
  297        353     0.08480
  298        331     0.12029
  299        332     0.11355
  300        299     0.08128
  301        322     0.10193
  302        326     0.09451
  303        298     0.07389
  304        331     0.07982
  305        295     0.06738
  306        306     0.08108
  307        333     0.08462
  308        307     0.08035
  309        319     0.07750
  310        299     0.07548
  311        290     0.08826
  312        300     0.07908
  313        322     0.06603
  314        267     0.06105
  315        320     0.07623
  316        293     0.08347
  317        306     0.08182
  318        303     0.08336
  319        292     0.07434
  320        264     0.06443
  321        281     0.08220
  322        312     0.07567
  323        291     0.06820
  324        297     0.07670
  325        318     0.08054
  326        286     0.05573
  327        313     0.06676
  328        307     0.07108
  329        263     0.06314
  330        249     0.06826
  331        285     0.05589
  332        274     0.04745
  333        293     0.05370
  334        275     0.07053
  335        312     0.07470
  336        278     0.05949
  337        286     0.05424
  338        259     0.05772
  339        237     0.05606
  340        289     0.06090
  341        297     0.03986
  342        270     0.05393
  343        270     0.07004
  344        269     0.05964
  345        283     0.07019
  346        254     0.04678
  347        289     0.05643
  348        258     0.05195
  349        257     0.07756
  350        279     0.05268
  351        270     0.04626
  352        262     0.04669
  353        274     0.06136
  354        258     0.03964
  355        265     0.04637
  356        250     0.05115
  357        247     0.05747
  358        265     0.05507
  359        261     0.05156
  360        255     0.04944
  361        254     0.05717
  362        254     0.03669
  363        247     0.05144
  364        212     0.03973
  365        281     0.06567
  366        246     0.05616
  367        244     0.06089
  368        257     0.04446
  369        271     0.06181
  370        286     0.05615
  371        235     0.03670
  372        274     0.03597
  373        253     0.05598
  374        261     0.03991
  375        234     0.04486
  376        243     0.03859
  377        229     0.03794
  378        250     0.03525
  379        227     0.04098
  380        212     0.03198
  381        267     0.03495
  382        249     0.04157
  383        237     0.03910
  384        253     0.05085
  385        233     0.03798
  386        262     0.04050
  387        237     0.03916
  388        233     0.04568
  389        244     0.03907
  390        232     0.03419
  391        243     0.03487
  392        235     0.04093
  393        247     0.03861
  394        237     0.03357
  395        293     0.04599
  396        227     0.06364
  397        239     0.03411
  398        226     0.03426
  399        244     0.04514
  400        235     0.03742
  401        249     0.04419
  402        243     0.02982
  403        222     0.05157
  404        219     0.02845
  405        230     0.03657
  406        231     0.03640
  407        227     0.02925
  408        241     0.03753
  409        215     0.03124
  410        211     0.03258
  411        223     0.03918
  412        220     0.03039
  413        227     0.03067
  414        226     0.04132
  415        197     0.03307
  416        228     0.04732
  417        208     0.03059
  418        209     0.02714
  419        220     0.03172
  420        216     0.03038
  421        217     0.03951
  422        242     0.04392
  423        220     0.02722
  424        230     0.02863
  425        212     0.02967
  426        230     0.03445
  427        205     0.02429
  428        218     0.03977
  429        229     0.03451
  430        192     0.03499
  431        200     0.02752
  432        238     0.04011
  433        223     0.03343
  434        187     0.03437
  435        212     0.03065
  436        203     0.03065
  437        211     0.03946
  438        196     0.03805
  439        225     0.03459
  440        210     0.03746
  441        216     0.03397
  442        190     0.03113
  443        208     0.03276
  444        220     0.03379
  445        196     0.04144
  446        197     0.02870
  447        195     0.03062
  448        228     0.04876
  449        177     0.03482
  450        196     0.03146
  451        214     0.03922
  452        194     0.03165
  453        189     0.02924
  454        198     0.03514
  455        189     0.02894
  456        207     0.03525
  457        194     0.02659
  458        214     0.02799
  459        198     0.03892
  460        217     0.02712
  461        202     0.03657
  462        186     0.02842
  463        186     0.03052
  464        202     0.02122
  465        172     0.03548
  466        195     0.02754
  467        187     0.03198
  468        205     0.03215
  469        203     0.03510
  470        186     0.02721
  471        210     0.03146
  472        196     0.03192
  473        212     0.02955
  474        213     0.03891
  475        183     0.02834
  476        192     0.02808
  477        207     0.03168
  478        172     0.02684
  479        179     0.03272
  480        196     0.03404
  481        217     0.03086
  482        167     0.02655
  483        203     0.03857
  484        181     0.03374
  485        195     0.02782
  486        194     0.03136
  487        205     0.02606
  488        197     0.02810
  489        175     0.03387
  490        199     0.03315
  491        190     0.04086
  492        206     0.02988
  493        172     0.02706
  494        164     0.02465
  495        180     0.02435
  496        180     0.02477
  497        164     0.03121
  498        172     0.03387
  499        187     0.03102
  500        199     0.03465
  501        183     0.03360
  502        150     0.02537
  503        179     0.03229
  504        144     0.02351
  505        150     0.02862
  506        148     0.05072
  507        139     0.02152
  508        129     0.02277
  509        145     0.02879
  510        131     0.02393
  511        132     0.02594
  512        122     0.02492
  513        112     0.02134
  514        116     0.02073
  515        111     0.01850
  516        113     0.02222
  517        104     0.02032
  518        100     0.01815
  519         90     0.02144
  520         87     0.02647
  521         87     0.02147
  522         89     0.02252
  523         92     0.02206
  524         88     0.01503
  525         70     0.01729
  526         76     0.02708
  527         64     0.01748
  528         74     0.02106
  529         72     0.01949
  530         81     0.02253
  531         66     0.02046
  532         64     0.02883
  533         60     0.02217
  534         63     0.02283
  535         58     0.02669
  536         60     0.01927
  537         59     0.02044
  538         44     0.01598
  539         57     0.01568
  540         43     0.01625
  541         53     0.03352
  542         42     0.01227
  543         48     0.02788
  544         52     0.02515
  545         43     0.01635
  546         48     0.01425
  547         33     0.01234
  548         59     0.02104
  549         41     0.02290
  550         46     0.02289
  551         41     0.02500
  552         36     0.01723
  553         41     0.01874
  554         44     0.02227
  555         47     0.01902
  556         48     0.01895
  557         32     0.01398
  558         38     0.01886
  559         47     0.01574
  560         38     0.01882
  561         34     0.02217
  562         46     0.01776
  563         45     0.01187
  564         39     0.01769
  565         38     0.01404
  566         32     0.01765
  567         37     0.01802
  568         32     0.01774
  569         28     0.00978
  570         41     0.01942
  571         25     0.01239
  572         26     0.01851
  573         30     0.01603
  574         29     0.01700
  575         28     0.01422
  576         35     0.02296
  577         25     0.01431
  578         36     0.01860
  579         30     0.01401
  580         30     0.01011
  581         36     0.02501
  582         33     0.01446
  583         43     0.01256
  584         31     0.01383
  585         27     0.01506
  586         22     0.00895
  587         21     0.01499
  588         23     0.01520
  589         23     0.00961
  590         24     0.01172
  591         22     0.01156
  592         29     0.01913
  593         14     0.00971
  594         33     0.01248
  595         21     0.01575
  596         19     0.01250
  597         20     0.01331
  598         19     0.00875
  599         33     0.01456
  600         22     0.01139
  601         26     0.02125
  602         23     0.02016
  603         20     0.00956
  604         20     0.01503
  605         31     0.01345
  606         11     0.01157
  607         29     0.02327
  608         24     0.00946
  609         23     0.01739
  610         20     0.00926
  611         14     0.01591
  612         31     0.01258
  613         17     0.01373
  614         22     0.00867
  615         18     0.01212
  616         20     0.01763
  617         21     0.01343
  618         18     0.01121
  619         19     0.02033
  620         17     0.01127
  621         23     0.01496
  622         19     0.01382
  623         16     0.00820
  624         15     0.01278
  625         19     0.01671
  626         20     0.00926
  627         18     0.01703
  628         16     0.01506
  629         19     0.01209
  630         11     0.01441
  631         13     0.00819
  632         12     0.00938
  633         19     0.01452
  634         17     0.01091
  635         14     0.00742
  636         15     0.01098
  637         21     0.01365
  638         19     0.01530
  639          9     0.00689
  640         16     0.00923
  641         13     0.00803
  642         22     0.00881
  643         18     0.01272
  644         12     0.00776
  645         17     0.01074
  646         23     0.01488
  647         12     0.01167
  648         15     0.00825
  649         16     0.00844
  650         14     0.00810
  651         15     0.01259
  652         15     0.01111
  653         12     0.01320
  654         16     0.00875
  655         14     0.01169
  656         16     0.01459
  657          9     0.01258
  658         14     0.00828
  659          7     0.00667
  660          6     0.00706
  661          9     0.00856
  662         15     0.01692
  663         15     0.01247
  664         19     0.00863
  665         15     0.00796
  666         15     0.00797
  667          5     0.00899
  668         12     0.01638
  669          9     0.00980
  670         11     0.00956
  671         12     0.01035
  672         14     0.01131
  673         15     0.01011
  674         13     0.01352
  675         19     0.00895
  676          6     0.00713
  677          9     0.00759
  678         12     0.00855
  679         13     0.01351
  680         12     0.00883
  681          6     0.00684
  682          4     0.00705
  683         10     0.01875
  684          8     0.00712
  685         11     0.00734
  686         10     0.00776
  687         10     0.00819
  688         11     0.00754
  689         22     0.01519
  690          9     0.01197
  691         12     0.01077
  692          6     0.00849
  693          5     0.00675
  694         17     0.01929
  695          6     0.01261
  696          5     0.00671
  697          8     0.00763
  698          3     0.00567
  699         12     0.01323
  700          3     0.00668
  701          7     0.00664
  702          6     0.00846
  703          9     0.01256
  704          7     0.01072
  705          6     0.00671
  706          7     0.01712
  707          5     0.00651
  708          6     0.01114
  709          7     0.01145
  710          8     0.00872
  711          8     0.00716
  712          7     0.00666
  713          4     0.01608
  714          6     0.00720
  715          6     0.00740
  716          4     0.01246
  717          7     0.01076
  718          4     0.00961
  719         13     0.00943
  720          7     0.00714
  721          8     0.00719
  722          8     0.01060
  723          6     0.00718
  724          8     0.00717
  725          3     0.00990
  726          8     0.00697
  727          3     0.00640
  728          5     0.00635
  729          3     0.00625
  730          3     0.00921
  731          6     0.00657
  732          7     0.00733
  733          5     0.00682
  734          7     0.00997
  735          7     0.00744
  736          7     0.00852
  737          2     0.00619
  738          5     0.00609
  739          4     0.00744
  740          3     0.00653
  741          5     0.00676
  742          3     0.00777
  743          2     0.00605
  744          4     0.00616
  745          2     0.00605
  746          3     0.00580
  747          8     0.01013
  748          2     0.00587
  749          5     0.00682
  750          4     0.00577
  751          3     0.00945
  752          2     0.00602
  753          4     0.00604
  754          1     0.00595
  755          4     0.00602
  756          3     0.00994
  757          4     0.00662
  759          6     0.00934
  760          1     0.00537
  761          6     0.01022
  762          4     0.00622
  763          3     0.00640
  764          2     0.00670
  765          4     0.01276
  766          4     0.00632
  767          5     0.01698
  768          2     0.00609
  769          5     0.00779
  770          2     0.00622
  771          6     0.01406
  772          3     0.00612
  773          3     0.00589
  774          2     0.00515
  775          2     0.00568
  776          4     0.00661
  777          4     0.00657
  779          1     0.00562
  780          4     0.00679
  781          2     0.00834
  782          3     0.00559
  783          2     0.00605
  785          2     0.00794
  786          1     0.00594
  787          2     0.00632
  788          3     0.00608
  790          1     0.00588
  791          2     0.00575
  792          3     0.00951
  794          3     0.01221
  795          3     0.00657
  796          2     0.00565
  797          2     0.00692
  798          1     0.00604
  799          3     0.00618
  800          4     0.01307
  801          3     0.00605
  802          1     0.00531
  803          2     0.00582
  804          1     0.00578
  805          3     0.00621
  806          1     0.00605
  807          3     0.00678
  809          3     0.00578
  810          1     0.00609
  811          3     0.00583
  812          2     0.00606
  813          4     0.00658
  814          2     0.00563
  815          1     0.00842
  816          1     0.00608
  819          2     0.00587
  821          1     0.00626
  822          2     0.00608
  823          3     0.00660
  824          2     0.00640
  826          5     0.01505
  827          1     0.00652
  828          2     0.00585
  829          2     0.00630
  830          2     0.00579
  831          2     0.00927
  833          1     0.00596
  835          1     0.00611
  836          1     0.00610
  839          1     0.00545
  841          3     0.00651
  842          1     0.00592
  843          3     0.01082
  844          2     0.00601
  845          3     0.00899
  846          2     0.01094
  847          1     0.00622
  848          1     0.00619
  849          1     0.00606
  850          5     0.01265
  852          1     0.00946
  853          2     0.00599
  856          1     0.00609
  857          1     0.00624
  858          2     0.00605
  861          1     0.00590
  862          1     0.00582
  864          4     0.00612
  865          1     0.00563
  866          3     0.00995
  870          2     0.00968
  871          3     0.00669
  872          2     0.00606
  873          1     0.00623
  876          2     0.01030
  877          3     0.00643
  879          1     0.00587
  882          3     0.00656
  885          1     0.00609
  887          2     0.00605
  894          1     0.00590
  901          1     0.00559
  902          1     0.00990
  903          2     0.00593
  907          2     0.00646
  909          1     0.00594
  911          1     0.00556
  912          1     0.00583
  913          1     0.00644
  915          1     0.00573
  916          1     0.00589
  917          1     0.00553
  918          1     0.00600
  922          1     0.00579
  924          1     0.00598
  925          1     0.00678
  927          2     0.00632
  935          1     0.00615
  936          1     0.00640
  938          1     0.00570
  942          2     0.00644
  951          1     0.00579
  952          1     0.00597
  953          1     0.00578
  955          1     0.00611
  956          1     0.00644
  957          1     0.00604
  972          1     0.00591
  980          1     0.00601
  995          1     0.01050
  996          1     0.00745
 1005          1     0.00936
 1006          1     0.00533
 1009          1     0.00600
 1011          1     0.00585
 1012          1     0.00594
 1015          1     0.00605
 1018          1     0.00598
 1019          1     0.00582
 1042          1     0.00610
 1043          2     0.00590
 1049          1     0.00583
 1052          1     0.00576
 1058          1     0.00597
 1062          1     0.00573
 1086          2     0.04905
 1089          1     0.00663
 1094          1     0.00624
 1105          1     0.00616
 1112          1     0.00611
 1123          1     0.00666
 1137          1     0.00740
 1278          1     0.00584
took 690 iterations
Trial Time:          0.04870
    0          1     0.05832
    4          2     0.18953
    5          1     0.02496
    7          1     0.05333
    8          5     0.12564
    9          1     0.05321
   11          4     0.23148
   12          4     0.11223
   13          6     0.14613
   14          6     0.24406
   15         13     0.18705
   16          9     0.27552
   17         17     0.23561
   18         22     0.36009
   19         23     0.37273
   20         31     0.40380
   21         41     0.37039
   22         52     0.94947
   23         83     0.56786
   24        105     0.81898
   25        121     0.57631
   26        123     0.59908
   27        182     0.55516
   28        167     0.49117
   29        200     0.73267
   30        231     0.56139
   31        207     0.40549
   32        241     0.60902
   33        233     0.85209
   34        309     0.53026
   35        332     0.62996
   36        280     0.48582
   37        310     0.48015
   38        323     0.47481
   39        314     0.45554
   40        335     0.32838
   41        318     0.62018
   42        361     0.32590
   43        360     0.26903
   44        354     0.29653
   45        342     0.27251
   46        382     0.30078
   47        332     0.24979
   48        360     0.28290
   49        349     0.24732
   50        316     0.19235
   51        340     0.26772
   52        374     0.21984
   53        349     0.18063
   54        361     0.20646
   55        355     0.17214
   56        341     0.23769
   57        366     0.14783
   58        358     0.18724
   59        374     0.17066
   60        333     0.15254
   61        353     0.17390
   62        348     0.11939
   63        371     0.11894
   64        332     0.09451
   65        305     0.10725
   66        342     0.13046
   67        342     0.12437
   68        333     0.10445
   69        338     0.09650
   70        317     0.10777
   71        336     0.11280
   72        298     0.08339
   73        320     0.11039
   74        329     0.09407
   75        335     0.09713
   76        312     0.08929
   77        335     0.09580
   78        311     0.09930
   79        347     0.11615
   80        316     0.08659
   81        315     0.08880
   82        312     0.09766
   83        311     0.07243
   84        284     0.06825
   85        319     0.07331
   86        316     0.08123
   87        296     0.08259
   88        312     0.07886
   89        277     0.07558
   90        287     0.08103
   91        318     0.09156
   92        284     0.07186
   93        288     0.06580
   94        310     0.07857
   95        305     0.08992
   96        277     0.06654
   97        318     0.07307
   98        290     0.07798
   99        303     0.06370
  100        282     0.06710
  101        294     0.06785
  102        278     0.08539
  103        276     0.05136
  104        306     0.06557
  105        266     0.05810
  106        283     0.05178
  107        288     0.08883
  108        289     0.07163
  109        265     0.05410
  110        302     0.06078
  111        298     0.06814
  112        267     0.05096
  113        294     0.05619
  114        317     0.07709
  115        302     0.06729
  116        277     0.04529
  117        290     0.07764
  118        292     0.05568
  119        268     0.05731
  120        270     0.06466
  121        270     0.05854
  122        257     0.05486
  123        256     0.05401
  124        281     0.04625
  125        246     0.04419
  126        299     0.06854
  127        257     0.05449
  128        247     0.07076
  129        259     0.05125
  130        261     0.05500
  131        278     0.04176
  132        244     0.04419
  133        248     0.04405
  134        258     0.07596
  135        251     0.04613
  136        264     0.06266
  137        235     0.04056
  138        221     0.03830
  139        235     0.07134
  140        272     0.06482
  141        261     0.04404
  142        253     0.03849
  143        231     0.04261
  144        279     0.05132
  145        263     0.04971
  146        224     0.03896
  147        252     0.04688
  148        258     0.03999
  149        263     0.05036
  150        245     0.04886
  151        226     0.03966
  152        262     0.04497
  153        226     0.03970
  154        234     0.04265
  155        257     0.04426
  156        245     0.04437
  157        246     0.04128
  158        231     0.02793
  159        262     0.03782
  160        249     0.03570
  161        240     0.05339
  162        250     0.04434
  163        250     0.04850
  164        231     0.03639
  165        238     0.03226
  166        231     0.03361
  167        221     0.03443
  168        241     0.03955
  169        226     0.04622
  170        248     0.04123
  171        228     0.05125
  172        208     0.02665
  173        258     0.05079
  174        243     0.03959
  175        236     0.04186
  176        248     0.05134
  177        260     0.04524
  178        234     0.03559
  179        248     0.04613
  180        238     0.03941
  181        233     0.04723
  182        216     0.03500
  183        223     0.03463
  184        218     0.03273
  185        219     0.03213
  186        237     0.04260
  187        240     0.04645
  188        223     0.03499
  189        203     0.02887
  190        238     0.04363
  191        234     0.04386
  192        225     0.03048
  193        185     0.02960
  194        182     0.03282
  195        210     0.03447
  196        208     0.02785
  197        214     0.03576
  198        233     0.03608
  199        210     0.03029
  200        212     0.03629
  201        229     0.03505
  202        215     0.03314
  203        236     0.03744
  204        189     0.03711
  205        217     0.03925
  206        209     0.02943
  207        201     0.03812
  208        205     0.04606
  209        207     0.03251
  210        224     0.03714
  211        203     0.03163
  212        204     0.03730
  213        216     0.03607
  214        210     0.03222
  215        199     0.03100
  216        200     0.02693
  217        195     0.02904
  218        204     0.03526
  219        186     0.03385
  220        239     0.03598
  221        232     0.03718
  222        195     0.03090
  223        177     0.03673
  224        192     0.04031
  225        199     0.03844
  226        171     0.02994
  227        215     0.03881
  228        205     0.03637
  229        212     0.02755
  230        209     0.02790
  231        194     0.02757
  232        195     0.03041
  233        194     0.02838
  234        228     0.03009
  235        194     0.03612
  236        212     0.02417
  237        219     0.03223
  238        199     0.02715
  239        181     0.02954
  240        179     0.03636
  241        180     0.03444
  242        184     0.02790
  243        186     0.03444
  244        201     0.02178
  245        172     0.02523
  246        221     0.02987
  247        187     0.03190
  248        180     0.03273
  249        205     0.02360
  250        190     0.02535
  251        222     0.03665
  252        208     0.05012
  253        200     0.02753
  254        214     0.03317
  255        184     0.03249
  256        187     0.02735
  257        198     0.02530
  258        203     0.03801
  259        217     0.03393
  260        188     0.02916
  261        184     0.04353
  262        186     0.03226
  263        199     0.03835
  264        177     0.02632
  265        179     0.02291
  266        208     0.03368
  267        163     0.03372
  268        193     0.02495
  269        190     0.02708
  270        173     0.02875
  271        213     0.03347
  272        184     0.04102
  273        187     0.03057
  274        182     0.02402
  275        166     0.03657
  276        156     0.03184
  277        165     0.02819
  278        148     0.03150
  279        168     0.02685
  280        132     0.02126
  281        152     0.02360
  282        169     0.02933
  283        168     0.03859
  284        149     0.02562
  285        131     0.02601
  286        121     0.02017
  287        131     0.02112
  288        126     0.02891
  289        104     0.02167
  290        110     0.02777
  291         98     0.02252
  292         90     0.02446
  293         99     0.01911
  294        115     0.02431
  295        109     0.01913
  296         86     0.02375
  297         77     0.01678
  298         74     0.01508
  299         87     0.02123
  300         83     0.03368
  301         74     0.01771
  302         72     0.01959
  303         77     0.02134
  304         71     0.02208
  305         56     0.02303
  306         66     0.01791
  307         69     0.01962
  308         54     0.02237
  309         63     0.02128
  310         63     0.01961
  311         79     0.02684
  312         58     0.02145
  313         46     0.02138
  314         64     0.02528
  315         45     0.01942
  316         56     0.01890
  317         42     0.01688
  318         44     0.01519
  319         45     0.01611
  320         41     0.01939
  321         39     0.01964
  322         33     0.01695
  323         51     0.02345
  324         51     0.01379
  325         47     0.01714
  326         44     0.01758
  327         50     0.01935
  328         50     0.01750
  329         38     0.01928
  330         38     0.01298
  331         39     0.01917
  332         37     0.01339
  333         45     0.01504
  334         39     0.01667
  335         45     0.02357
  336         33     0.01500
  337         46     0.01987
  338         43     0.01609
  339         37     0.01706
  340         42     0.01814
  341         41     0.01441
  342         44     0.01480
  343         27     0.01890
  344         25     0.00913
  345         38     0.01634
  346         30     0.01239
  347         40     0.02527
  348         29     0.00961
  349         21     0.00920
  350         39     0.02472
  351         31     0.01620
  352         27     0.00979
  353         21     0.01826
  354         35     0.02009
  355         35     0.01494
  356         32     0.01744
  357         22     0.00849
  358         27     0.01380
  359         32     0.01684
  360         32     0.01280
  361         31     0.01243
  362         22     0.01605
  363         27     0.01722
  364         23     0.01107
  365         28     0.02268
  366         19     0.01580
  367         36     0.01290
  368         29     0.01679
  369         27     0.00962
  370         19     0.01025
  371         16     0.01439
  372         20     0.01059
  373         19     0.01655
  374         20     0.01499
  375         23     0.01266
  376         18     0.01348
  377         27     0.01097
  378         30     0.01907
  379         22     0.00934
  380         17     0.02236
  381         33     0.01555
  382         30     0.02392
  383         30     0.01520
  384         24     0.01400
  385         18     0.01174
  386         16     0.00808
  387         28     0.00975
  388         17     0.01468
  389         22     0.01589
  390         20     0.01134
  391         12     0.00859
  392         19     0.01323
  393         20     0.01421
  394         26     0.01592
  395         12     0.01140
  396         11     0.01253
  397         18     0.00911
  398         21     0.01121
  399         21     0.01714
  400         17     0.01361
  401         13     0.00826
  402         14     0.00939
  403         21     0.01641
  404         16     0.01567
  405         19     0.01508
  406         10     0.00708
  407         18     0.00941
  408         13     0.00849
  409         13     0.01196
  410         14     0.01051
  411         22     0.01656
  412         17     0.01717
  413         15     0.01576
  414         22     0.01164
  415         15     0.00992
  416         18     0.01373
  417         19     0.00826
  418         14     0.01310
  419         19     0.01410
  420         10     0.00732
  421         16     0.00802
  422         11     0.00750
  423         13     0.00781
  424         25     0.01402
  425         15     0.01479
  426         17     0.01568
  427         17     0.01087
  428         11     0.00991
  429         14     0.01223
  430         11     0.01346
  431         17     0.00775
  432         14     0.00761
  433         15     0.01033
  434         17     0.01055
  435         13     0.00982
  436         20     0.01890
  437          4     0.00632
  438          9     0.00779
  439         15     0.01714
  440         12     0.01261
  441          7     0.00699
  442         13     0.01375
  443         15     0.00857
  444          7     0.00714
  445         15     0.01276
  446         12     0.00791
  447         12     0.01036
  448         15     0.00835
  449          9     0.00951
  450         14     0.00815
  451          9     0.00995
  452         13     0.00897
  453          9     0.00809
  454          9     0.01019
  455          6     0.00633
  456         12     0.00826
  457         11     0.00775
  458         18     0.01025
  459         11     0.00766
  460         14     0.00873
  461          8     0.00733
  462         13     0.01196
  463          8     0.02242
  464          9     0.00735
  465         13     0.00973
  466          7     0.00681
  467          5     0.01488
  468          9     0.00883
  469          6     0.00917
  470         10     0.00709
  471          6     0.00666
  472         15     0.01621
  473          7     0.01224
  474         14     0.01661
  475          7     0.00699
  476          9     0.00764
  477          3     0.00637
  478          5     0.00702
  479          6     0.00835
  480          7     0.00722
  481          6     0.00994
  482          4     0.00662
  483          2     0.00950
  484          7     0.01158
  485          7     0.01528
  486          8     0.00709
  487          9     0.00756
  488          6     0.00634
  489          7     0.00681
  490          4     0.00626
  491         12     0.01400
  492          4     0.00703
  493          5     0.00672
  494          7     0.01226
  495          7     0.00721
  496          7     0.02099
  497          7     0.00696
  498          7     0.00703
  499          6     0.00688
  500          7     0.00977
  501          8     0.00892
  502          3     0.00570
  503          7     0.00659
  504          7     0.00670
  505          7     0.00618
  506          2     0.00600
  507          4     0.00675
  508          5     0.01097
  509          5     0.00722
  510          2     0.00621
  511          4     0.00651
  512          4     0.00630
  513          7     0.00694
  514          4     0.00865
  515          6     0.00703
  516          4     0.00639
  517          5     0.00965
  518          2     0.00608
  519          1     0.00605
  520          2     0.00635
  521          7     0.00720
  522          4     0.00668
  523          7     0.01186
  524          2     0.00610
  525          6     0.00721
  527          2     0.00626
  528          5     0.01353
  529          2     0.00649
  530          5     0.00664
  531          6     0.00822
  532          6     0.01191
  533          3     0.00620
  534          4     0.00633
  535          3     0.00752
  536          4     0.00681
  537          2     0.00575
  538          3     0.01418
  539          3     0.00675
  540          6     0.00804
  541          2     0.00580
  542          5     0.00924
  543          4     0.00641
  544          2     0.00935
  545          4     0.00934
  546          4     0.00589
  547          2     0.00545
  548          2     0.00549
  549          2     0.00639
  550          3     0.00620
  551          4     0.00632
  553          3     0.00660
  554          4     0.00663
  556          2     0.00926
  558          3     0.00585
  559          5     0.01052
  560          3     0.00606
  561          4     0.00971
  562          1     0.00584
  563          1     0.00618
  564          2     0.00586
  565          1     0.01058
  566          5     0.00675
  567          1     0.00562
  568          1     0.00751
  569          1     0.00573
  570          1     0.00562
  571          1     0.00549
  572          1     0.00613
  573          2     0.00907
  574          1     0.00638
  575          1     0.00579
  576          1     0.00600
  577          2     0.00612
  578          3     0.01056
  579          3     0.00846
  580          1     0.00585
  582          2     0.00569
  583          4     0.00601
  584          2     0.00582
  585          1     0.00551
  586          4     0.00611
  587          1     0.00577
  588          2     0.00603
  590          2     0.00632
  591          1     0.00601
  594          3     0.00550
  595          3     0.00569
  596          1     0.00558
  597          3     0.00586
  598          1     0.00560
  599          1     0.00545
  600          4     0.00699
  601          2     0.00557
  602          4     0.00590
  604          1     0.00528
  606          2     0.00513
  607          3     0.00597
  609          4     0.04719
  610          1     0.00801
  612          1     0.00573
  614          1     0.00614
  616          1     0.00600
  617          3     0.00592
  619          3     0.00566
  621          3     0.00560
  623          2     0.00660
  624          1     0.00714
  625          1     0.00641
  626          2     0.00985
  628          1     0.00630
  629          2     0.00588
  630          2     0.00585
  631          2     0.01063
  632          2     0.00595
  633          1     0.00607
  636          2     0.01073
  637          3     0.00984
  638          1     0.00579
  639          2     0.00555
  641          3     0.00603
  642          1     0.00528
  644          2     0.00907
  647          1     0.00565
  648          3     0.01002
  649          2     0.00590
  650          1     0.00643
  652          3     0.00626
  655          1     0.01083
  656          2     0.00627
  661          1     0.00637
  662          1     0.00588
  663          1     0.00578
  665          1     0.00605
  667          2     0.00594
  673          1     0.00542
  677          1     0.00596
  679          2     0.00583
  680          1     0.00581
  681          1     0.00568
  684          1     0.00569
  685          1     0.00895
  690          1     0.00646
  691          1     0.00611
  694          1     0.00608
  695          1     0.00564
  696          1     0.00855
  697          1     0.00631
  698          1     0.00577
  699          2     0.00578
  700          1     0.00621
  703          1     0.00619
  705          1     0.00632
  713          1     0.00553
  717          1     0.00608
  718          1     0.00577
  719          1     0.00610
  721          1     0.00561
  725          1     0.00577
  726          1     0.00612
  727          1     0.00594
  732          1     0.00563
  735          1     0.00587
  739          1     0.00608
  755          1     0.00576
  758          1     0.00612
  766          1     0.00891
  776          1     0.01074
  777          1     0.00644
  779          1     0.00983
  782          1     0.00645
  785          1     0.00629
  786          1     0.00563
  792          1     0.00595
  793          1     0.00622
  795          1     0.00577
  814          1     0.00575
  825          1     0.00572
  826          1     0.00585
  832          1     0.00566
  833          1     0.00594
  836          1     0.00587
  846          1     0.00535
  869          1     0.04332
  872          2     0.00689
  873          1     0.00620
  883          1     0.00569
  884          1     0.00634
  902          1     0.00631
  920          1     0.00709
 1061          1     0.00558
took 686 iterations
Trial Time:          0.04901
    0          1     0.04364
    1          1     0.09307
    3          1     0.08901
    4          1     0.00615
    6          1     0.02495
    7          1     0.05317
    8          1     0.01806
    9          1     0.01892
   10          1     0.00838
   12          1     0.00897
   14          2     0.18127
   15          2     0.01400
   16          2     0.04332
   17          1     0.01239
   18          4     0.65161
   19          9     0.17610
   20         12     0.08536
   21          9     0.17520
   22         14     0.55013
   23         10     0.12320
   24         13     0.17060
   25         18     0.28841
   26         28     0.36104
   27         33     0.61856
   28         49     0.60672
   29         73     0.67574
   30         79     0.46412
   31        101     0.61279
   32         97     0.54359
   33        123     0.59435
   34        153     0.59882
   35        181     0.61157
   36        197     0.56297
   37        217     0.68912
   38        253     0.60424
   39        263     0.58638
   40        276     0.56945
   41        293     0.60794
   42        279     0.61792
   43        334     0.66136
   44        325     0.50855
   45        334     0.41275
   46        333     0.39717
   47        321     0.42253
   48        367     0.44265
   49        363     0.26850
   50        356     0.29905
   51        378     0.31524
   52        348     0.21763
   53        361     0.39623
   54        370     0.21809
   55        374     0.21411
   56        381     0.23804
   57        366     0.23590
   58        364     0.21091
   59        356     0.19855
   60        371     0.20639
   61        373     0.16333
   62        349     0.15477
   63        336     0.18293
   64        330     0.15959
   65        375     0.16815
   66        356     0.13801
   67        353     0.11276
   68        371     0.15052
   69        319     0.11492
   70        331     0.14549
   71        347     0.11646
   72        330     0.11088
   73        347     0.11511
   74        347     0.11650
   75        324     0.13175
   76        295     0.10807
   77        362     0.12428
   78        330     0.11373
   79        318     0.09797
   80        319     0.09593
   81        314     0.10618
   82        294     0.08138
   83        315     0.10494
   84        332     0.11252
   85        354     0.12165
   86        340     0.09111
   87        329     0.08299
   88        309     0.07972
   89        311     0.06706
   90        302     0.09184
   91        326     0.07929
   92        288     0.07407
   93        304     0.07442
   94        335     0.08479
   95        308     0.08373
   96        282     0.06479
   97        295     0.06844
   98        323     0.08843
   99        283     0.07415
  100        301     0.06781
  101        287     0.06609
  102        317     0.07781
  103        272     0.06815
  104        290     0.06311
  105        292     0.06337
  106        291     0.07674
  107        290     0.05668
  108        285     0.06940
  109        307     0.05740
  110        274     0.05873
  111        257     0.07350
  112        278     0.05343
  113        277     0.06135
  114        319     0.06217
  115        293     0.06288
  116        293     0.06920
  117        271     0.04855
  118        284     0.05807
  119        288     0.06114
  120        258     0.05284
  121        291     0.06428
  122        255     0.05159
  123        290     0.05989
  124        298     0.05519
  125        260     0.06854
  126        283     0.04858
  127        263     0.05267
  128        242     0.05210
  129        275     0.06841
  130        260     0.04126
  131        242     0.04615
  132        277     0.04686
  133        290     0.04459
  134        271     0.05387
  135        279     0.06648
  136        270     0.05311
  137        232     0.04601
  138        266     0.05083
  139        252     0.04743
  140        250     0.03930
  141        257     0.04385
  142        261     0.06076
  143        271     0.05057
  144        221     0.04263
  145        258     0.03820
  146        262     0.05462
  147        260     0.04206
  148        263     0.04753
  149        273     0.05323
  150        260     0.05856
  151        237     0.04776
  152        272     0.04666
  153        283     0.03682
  154        259     0.05720
  155        246     0.04312
  156        244     0.04131
  157        239     0.05608
  158        242     0.04082
  159        265     0.04893
  160        238     0.05634
  161        221     0.04111
  162        247     0.05426
  163        230     0.03868
  164        249     0.04316
  165        258     0.03808
  166        227     0.03688
  167        253     0.03667
  168        234     0.04028
  169        262     0.03995
  170        227     0.04618
  171        237     0.03723
  172        220     0.03161
  173        259     0.04651
  174        238     0.04967
  175        263     0.05220
  176        223     0.03686
  177        236     0.04234
  178        212     0.03117
  179        237     0.03694
  180        227     0.03621
  181        232     0.04194
  182        245     0.05705
  183        266     0.04152
  184        238     0.03577
  185        245     0.05048
  186        239     0.03073
  187        254     0.04952
  188        209     0.03964
  189        223     0.03289
  190        208     0.03298
  191        239     0.03737
  192        242     0.04741
  193        202     0.03619
  194        238     0.03818
  195        221     0.04841
  196        228     0.03313
  197        196     0.03720
  198        237     0.03477
  199        223     0.03179
  200        196     0.03056
  201        215     0.03829
  202        230     0.04442
  203        218     0.03453
  204        221     0.03130
  205        221     0.03838
  206        225     0.02785
  207        229     0.04236
  208        211     0.02714
  209        226     0.03355
  210        215     0.03488
  211        200     0.02966
  212        185     0.03308
  213        216     0.03420
  214        196     0.03816
  215        226     0.03239
  216        195     0.04093
  217        206     0.02948
  218        207     0.03498
  219        223     0.04037
  220        216     0.03569
  221        184     0.03540
  222        210     0.04793
  223        205     0.03602
  224        203     0.03027
  225        203     0.03095
  226        200     0.03211
  227        205     0.03561
  228        206     0.03443
  229        200     0.03645
  230        228     0.03651
  231        203     0.02303
  232        230     0.03165
  233        178     0.03321
  234        194     0.02744
  235        212     0.02382
  236        202     0.03349
  237        233     0.02744
  238        192     0.02728
  239        204     0.03149
  240        202     0.03061
  241        218     0.03197
  242        204     0.03873
  243        199     0.02925
  244        212     0.03288
  245        194     0.03574
  246        210     0.03906
  247        200     0.02301
  248        188     0.02936
  249        187     0.02257
  250        188     0.03760
  251        190     0.02552
  252        171     0.02709
  253        229     0.02944
  254        191     0.03528
  255        172     0.03368
  256        191     0.03610
  257        197     0.03528
  258        195     0.03465
  259        183     0.02205
  260        212     0.03090
  261        221     0.03308
  262        204     0.02703
  263        228     0.03222
  264        193     0.03242
  265        178     0.04462
  266        167     0.02249
  267        176     0.02950
  268        192     0.03271
  269        210     0.03255
  270        188     0.03465
  271        188     0.03650
  272        211     0.02931
  273        205     0.03465
  274        167     0.03327
  275        181     0.03199
  276        168     0.02579
  277        190     0.03330
  278        190     0.02804
  279        186     0.02914
  280        199     0.03159
  281        173     0.03502
  282        184     0.03535
  283        161     0.02974
  284        163     0.02923
  285        152     0.03019
  286        169     0.03086
  287        155     0.02418
  288        136     0.02487
  289        137     0.02593
  290        128     0.02622
  291        123     0.03037
  292        120     0.03015
  293        114     0.02461
  294        125     0.03059
  295        135     0.02653
  296        115     0.01795
  297        105     0.02036
  298         91     0.02258
  299        106     0.02433
  300         88     0.02277
  301         95     0.02110
  302         85     0.02221
  303         82     0.02231
  304         76     0.01833
  305         75     0.02313
  306         61     0.02146
  307         69     0.02257
  308         66     0.01741
  309         80     0.02220
  310         86     0.02202
  311         76     0.02132
  312         58     0.02142
  313         70     0.02476
  314         79     0.01785
  315         61     0.02344
  316         49     0.01505
  317         69     0.01769
  318         42     0.02439
  319         54     0.01784
  320         60     0.01409
  321         52     0.02298
  322         45     0.01763
  323         43     0.01792
  324         39     0.01194
  325         45     0.02874
  326         43     0.01676
  327         49     0.01645
  328         57     0.02207
  329         70     0.02738
  330         38     0.02082
  331         35     0.01106
  332         33     0.01297
  333         50     0.01199
  334         58     0.02400
  335         33     0.01526
  336         46     0.01471
  337         32     0.01710
  338         55     0.02312
  339         32     0.01783
  340         48     0.03136
  341         28     0.00911
  342         38     0.01287
  343         37     0.01631
  344         38     0.02271
  345         43     0.01533
  346         38     0.02144
  347         39     0.01809
  348         37     0.01110
  349         36     0.02244
  350         34     0.01344
  351         32     0.01367
  352         30     0.01898
  353         43     0.01130
  354         35     0.01329
  355         25     0.01168
  356         22     0.00978
  357         28     0.01086
  358         34     0.02250
  359         28     0.00985
  360         29     0.01458
  361         27     0.01922
  362         26     0.01018
  363         29     0.01337
  364         42     0.02210
  365         29     0.01611
  366         28     0.01383
  367         27     0.01388
  368         29     0.01088
  369         31     0.01549
  370         30     0.02173
  371         21     0.01271
  372         19     0.01325
  373         12     0.00800
  374         24     0.01213
  375         23     0.01634
  376         20     0.01198
  377         21     0.01095
  378         22     0.00932
  379         24     0.01127
  380         26     0.01123
  381         26     0.02408
  382         23     0.01519
  383         23     0.01659
  384         20     0.00878
  385         23     0.02261
  386         24     0.02123
  387         24     0.01746
  388         33     0.01676
  389         21     0.01303
  390         23     0.01692
  391         16     0.01212
  392         20     0.01413
  393         18     0.00823
  394         14     0.01170
  395         20     0.00899
  396         15     0.01150
  397         26     0.01386
  398         19     0.02160
  399         25     0.00931
  400         14     0.00906
  401         13     0.01158
  402         16     0.01624
  403         28     0.01060
  404         26     0.00916
  405         10     0.00959
  406         13     0.00947
  407         18     0.01761
  408         21     0.02107
  409         18     0.01093
  410         15     0.01226
  411         19     0.01184
  412         15     0.01049
  413         13     0.01179
  414         20     0.01254
  415         19     0.01030
  416         17     0.00757
  417         14     0.01296
  418         23     0.01633
  419         17     0.00848
  420         15     0.00868
  421         13     0.01082
  422         18     0.00789
  423         16     0.01062
  424         11     0.00854
  425         21     0.01223
  426         20     0.00945
  427         12     0.00967
  428          9     0.01589
  429         14     0.00810
  430         12     0.00779
  431         14     0.01154
  432         14     0.01147
  433         13     0.01186
  434         15     0.01238
  435         20     0.01120
  436          9     0.00933
  437         10     0.00920
  438         16     0.01108
  439         16     0.01058
  440         12     0.01160
  441         12     0.01100
  442          9     0.01154
  443         19     0.00909
  444         13     0.00769
  445         16     0.01262
  446         12     0.01197
  447         16     0.00909
  448         10     0.00977
  449          9     0.01280
  450          9     0.00773
  451         16     0.00842
  452         14     0.00786
  453         10     0.01069
  454         13     0.01117
  455         11     0.01291
  456         11     0.00758
  457          9     0.00656
  458         11     0.00698
  459         10     0.01222
  460         10     0.00729
  461          8     0.00730
  462         12     0.00799
  463         11     0.01454
  464         12     0.00809
  465         10     0.01180
  466          9     0.00739
  467          8     0.00741
  468         12     0.01472
  469         12     0.00849
  470         13     0.01081
  471         15     0.01309
  472          6     0.01270
  473         10     0.00722
  474          6     0.00794
  475          6     0.00689
  476          3     0.00625
  477         18     0.01115
  478          8     0.00945
  479          5     0.01145
  480          8     0.01222
  481          8     0.01277
  482         12     0.01013
  483          5     0.01091
  484          4     0.00586
  485          6     0.00666
  486          5     0.00665
  487          4     0.00638
  488         12     0.01320
  489         11     0.00899
  490          5     0.00979
  491          4     0.00655
  492          4     0.00682
  493          9     0.00756
  494          4     0.01746
  495          7     0.00717
  496          7     0.00663
  497          3     0.00559
  498          5     0.00616
  499          5     0.00588
  500          9     0.00656
  501          7     0.01154
  502          4     0.00710
  503          9     0.03711
  504          8     0.01378
  505          9     0.00788
  506          9     0.00717
  507         11     0.00999
  508          5     0.00743
  509          9     0.01139
  510          8     0.00685
  511          4     0.00657
  512          3     0.00600
  513          7     0.01186
  514          5     0.00620
  515          1     0.00562
  516          4     0.00637
  517          7     0.00666
  518          4     0.00586
  519          7     0.00810
  520          1     0.00577
  521          3     0.00559
  522          2     0.00591
  523          4     0.00647
  524          7     0.00697
  525          5     0.01104
  526          3     0.00937
  527          5     0.00652
  528          3     0.00609
  529          3     0.00609
  530          4     0.01178
  531          3     0.00627
  532          4     0.00639
  533          4     0.00666
  534          3     0.00665
  535          1     0.00552
  536          2     0.00625
  537          4     0.01407
  538          3     0.00768
  539          2     0.00654
  540          4     0.00620
  541          5     0.01069
  542          2     0.01009
  543          1     0.00574
  544          2     0.00540
  545          4     0.00623
  546          8     0.01245
  547          3     0.00622
  548          2     0.00603
  549          4     0.00654
  550          5     0.01178
  551          1     0.00584
  552          3     0.00530
  553          2     0.00587
  554          5     0.00904
  555          1     0.00539
  556          2     0.00591
  557          4     0.00609
  558          3     0.00588
  559          3     0.00723
  561          6     0.00629
  562          3     0.00905
  563          2     0.00602
  564          4     0.00567
  566          2     0.00575
  568          1     0.00588
  569          1     0.00570
  570          1     0.00593
  571          1     0.00922
  572          3     0.00603
  573          4     0.01029
  574          3     0.00635
  575          3     0.00942
  576          2     0.00602
  578          3     0.00603
  579          2     0.00974
  580          1     0.00566
  581          1     0.00576
  582          3     0.00533
  584          4     0.00636
  585          4     0.01073
  586          1     0.00543
  588          2     0.00566
  589          3     0.00728
  590          2     0.00563
  591          2     0.00596
  593          2     0.00593
  594          4     0.00653
  595          2     0.00560
  596          1     0.00598
  600          1     0.00614
  601          1     0.00557
  602          1     0.00561
  603          2     0.00582
  604          3     0.00627
  605          3     0.01030
  606          1     0.00588
  608          2     0.00630
  609          1     0.00579
  610          4     0.00598
  612          1     0.00587
  614          1     0.00623
  615          2     0.00606
  616          1     0.00579
  618          2     0.01490
  619          2     0.00598
  621          1     0.00577
  622          1     0.00544
  623          3     0.01529
  624          2     0.00928
  625          1     0.00598
  626          2     0.00572
  627          2     0.00911
  628          4     0.00934
  629          2     0.00576
  630          2     0.00561
  634          1     0.00586
  635          3     0.00632
  637          3     0.00965
  638          2     0.00552
  639          1     0.00594
  640          1     0.00543
  641          1     0.00550
  642          1     0.00579
  643          1     0.00865
  646          2     0.00525
  648          2     0.00568
  649          2     0.00897
  653          2     0.00605
  654          1     0.00612
  655          2     0.00547
  656          1     0.00539
  657          2     0.00563
  658          1     0.00507
  659          1     0.00896
  660          1     0.00554
  661          1     0.00593
  663          1     0.00617
  667          1     0.00574
  668          2     0.00991
  669          1     0.00571
[...]
 1246          1     0.00598
took 692 iterations
Trial Time:          0.04912
    0          1     0.02525
  149          1     0.03907
  175          1     0.24371
  176          1     0.02365
  177          1     0.13601
  178          1     0.02981
  179          3     0.12913
  180          4     0.09680
  181          7     0.36967
  182          7     0.21827
  183          8     0.29180
  184         10     0.39260
  185          9     0.15806
  186         20     0.39429
  187         22     0.27911
  188         23     0.75602
  189         46     0.48463
  190         53     0.35618
  191         55     0.55130
  192         79     0.48034
  193        100     0.59778
  194        111     0.53612
  195        128     0.54236
  196        164     0.50746
  197        164     0.54796
  198        199     0.91678
  199        198     0.76429
  200        255     0.54041
  201        222     0.46690
  202        231     0.42574
  203        278     0.41653
  204        296     0.47019
  205        312     0.60029
  206        321     0.45296
  207        320     0.30566
  208        306     0.44195
  209        333     0.37255
  210        312     0.41660
  211        376     0.32284
  212        360     0.35532
  213        347     0.42475
  214        335     0.35272
  215        351     0.25068
  216        340     0.27045
  217        349     0.23847
  218        367     0.23615
  219        391     0.34967
  220        339     0.19563
  221        326     0.20290
  222        368     0.21264
  223        376     0.16691
  224        360     0.22562
  225        335     0.14825
  226        347     0.14240
  227        353     0.18764
  228        346     0.16812
  229        388     0.17905
  230        369     0.14738
  231        359     0.13918
  232        341     0.13282
  233        333     0.12812
  234        365     0.10782
  235        340     0.12741
  236        355     0.11662
  237        356     0.11018
  238        343     0.12906
  239        325     0.10161
  240        355     0.08796
  241        311     0.09385
  242        315     0.09402
  243        352     0.09494
  244        304     0.09827
  245        310     0.10025
  246        309     0.09243
  247        324     0.11202
  248        336     0.08953
  249        316     0.09272
  250        290     0.08348
  251        315     0.07125
  252        311     0.09063
  253        316     0.08277
  254        301     0.07721
  255        310     0.08277
  256        333     0.09499
  257        308     0.06538
  258        305     0.08440
  259        293     0.07819
  260        323     0.08951
  261        302     0.06766
  262        300     0.08075
  263        266     0.06362
  264        295     0.06800
  265        289     0.06846
  266        316     0.06065
  267        260     0.05586
  268        308     0.08386
  269        293     0.07327
  270        276     0.07007
  271        266     0.05208
  272        292     0.06577
  273        264     0.06246
  274        285     0.06257
  275        292     0.06071
  276        308     0.05977
  277        260     0.05411
  278        332     0.06849
  279        303     0.06657
  280        290     0.06311
  281        273     0.04944
  282        275     0.06596
  283        282     0.04839
  284        294     0.05641
  285        267     0.04915
  286        295     0.07042
  287        266     0.05136
  288        262     0.06100
  289        279     0.04559
  290        261     0.06085
  291        279     0.04914
  292        262     0.06028
  293        260     0.04411
  294        263     0.05434
  295        272     0.06027
  296        271     0.06258
  297        251     0.07834
  298        259     0.07008
  299        285     0.05817
  300        257     0.04901
  301        227     0.05715
  302        254     0.03935
  303        277     0.04680
  304        246     0.05248
  305        236     0.04682
  306        247     0.03822
  307        259     0.05092
  308        253     0.05391
  309        252     0.04990
  310        233     0.05014
  311        242     0.04104
  312        216     0.04329
  313        261     0.03872
  314        243     0.05258
  315        270     0.05247
  316        228     0.05691
  317        275     0.04588
  318        253     0.04472
  319        248     0.05040
  320        263     0.05090
  321        231     0.03537
  322        218     0.04202
  323        247     0.04913
  324        246     0.04485
  325        234     0.04277
  326        228     0.03103
  327        227     0.03344
  328        257     0.04458
  329        271     0.03911
  330        252     0.05018
  331        232     0.03940
  332        273     0.04962
  333        227     0.04810
  334        229     0.03898
  335        236     0.04780
  336        259     0.04732
  337        238     0.04199
  338        212     0.03247
  339        256     0.03991
  340        238     0.03893
  341        255     0.03428
  342        242     0.03886
  343        256     0.04392
  344        222     0.03341
  345        276     0.04548
  346        234     0.03626
  347        247     0.04617
  348        226     0.05138
  349        224     0.03685
  350        231     0.03674
  351        227     0.04046
  352        213     0.03961
  353        239     0.04878
  354        210     0.03197
  355        231     0.03885
  356        207     0.02273
  357        229     0.03294
  358        221     0.03341
  359        216     0.03634
  360        202     0.03042
  361        229     0.04502
  362        217     0.03554
  363        230     0.04280
  364        213     0.03104
  365        217     0.02895
  366        215     0.03593
  367        197     0.04187
  368        220     0.02701
  369        226     0.03698
  370        222     0.02734
  371        198     0.03124
  372        238     0.03670
  373        212     0.03625
  374        212     0.05007
  375        227     0.03377
  376        205     0.02937
  377        198     0.03220
  378        197     0.02927
  379        223     0.03809
  380        208     0.02320
  381        204     0.04148
  382        218     0.03274
  383        194     0.03047
  384        205     0.03748
  385        206     0.02699
  386        215     0.03675
  387        209     0.03041
  388        221     0.03977
  389        171     0.03563
  390        203     0.03515
  391        202     0.02721
  392        188     0.03363
  393        200     0.02901
  394        189     0.04057
  395        201     0.03625
  396        216     0.03828
  397        216     0.03315
  398        202     0.03034
  399        209     0.03411
  400        207     0.03317
  401        188     0.02953
  402        195     0.02629
  403        226     0.03857
  404        218     0.03621
  405        179     0.03474
  406        173     0.02464
  407        214     0.02570
  408        184     0.03324
  409        184     0.02392
  410        209     0.04344
  411        191     0.03262
  412        190     0.04362
  413        186     0.03530
  414        213     0.02472
  415        196     0.02692
  416        201     0.02518
  417        196     0.03216
  418        213     0.02679
  419        179     0.02987
  420        202     0.02583
  421        210     0.03141
  422        201     0.03248
  423        193     0.02937
  424        178     0.02502
  425        197     0.02765
  426        208     0.03701
  427        201     0.04797
  428        178     0.02478
  429        173     0.02723
  430        188     0.02644
  431        223     0.03018
  432        211     0.02959
  433        192     0.03192
  434        188     0.03589
  435        183     0.04002
  436        178     0.03258
  437        208     0.03221
  438        205     0.03034
  439        189     0.03263
  440        172     0.02637
  441        163     0.03081
  442        182     0.02774
  443        180     0.02928
  444        168     0.02912
  445        183     0.03587
  446        143     0.02392
  447        164     0.02213
  448        157     0.02856
  449        152     0.02767
  450        148     0.02827
  451        152     0.02542
  452        143     0.03287
  453        140     0.02896
  454        126     0.02460
  455        134     0.02209
  456        111     0.03128
  457        105     0.02438
  458        124     0.02140
  459        123     0.02269
  460        109     0.03104
  461        107     0.02051
  462         81     0.02070
  463         94     0.02166
  464         89     0.02238
  465         96     0.01804
  466         88     0.02081
  467         87     0.01969
  468         79     0.02182
  469         87     0.02047
  470         71     0.01985
  471         75     0.01663
  472         66     0.02062
  473         65     0.01451
  474         70     0.02797
  475         74     0.01953
  476         60     0.02010
  477         55     0.02616
  478         53     0.02829
  479         56     0.01722
  480         56     0.02074
  481         54     0.01545
  482         52     0.02004
  483         54     0.01841
  484         49     0.02444
  485         51     0.01300
  486         57     0.02407
  487         50     0.01378
  488         46     0.01840
  489         55     0.02086
  490         50     0.02182
  491         47     0.01223
  492         46     0.01590
  493         54     0.02075
  494         44     0.01661
  495         38     0.01938
  496         50     0.01932
  497         42     0.01677
  498         41     0.01920
  499         44     0.01161
  500         47     0.02024
  501         34     0.01666
  502         60     0.02597
  503         39     0.01728
  504         40     0.02345
  505         35     0.01167
  506         40     0.01170
  507         33     0.01591
  508         33     0.01061
  509         49     0.01417
  510         31     0.01943
  511         40     0.01146
  512         29     0.01692
  513         34     0.01359
  514         24     0.01473
  515         33     0.02108
  516         37     0.01818
  517         29     0.01421
  518         23     0.00928
  519         24     0.01273
  520         31     0.01385
  521         28     0.01185
  522         22     0.01572
  523         44     0.02206
  524         28     0.01903
  525         29     0.01038
  526         28     0.01705
  527         29     0.01683
  528         34     0.01502
  529         18     0.00924
  530         27     0.01218
  531         35     0.01217
  532         24     0.01324
  533         32     0.01557
  534         31     0.02047
  535         24     0.02215
  536         20     0.01431
  537         24     0.00896
  538         22     0.01073
  539         18     0.00914
  540         21     0.01260
  541         25     0.00937
  542         16     0.00805
  543         25     0.00945
  544         24     0.01859
  545         25     0.01442
  546         20     0.02539
  547         29     0.01074
  548         21     0.01930
  549         21     0.01819
  550         22     0.01609
  551         21     0.01134
  552         24     0.01697
  553         23     0.01073
  554         25     0.00904
  555         19     0.01389
  556         25     0.00971
  557         24     0.00977
  558         18     0.00867
  559         24     0.01268
  560         16     0.01313
  561         17     0.01277
  562         20     0.01631
  563         17     0.01598
  564         16     0.00823
  565         20     0.01711
  566         15     0.00943
  567         12     0.00935
  568         18     0.01551
  569         11     0.01045
  570         28     0.02131
  571         19     0.00907
  572         16     0.01162
  573         24     0.00904
  574         18     0.00934
  575         20     0.01799
  576         17     0.01142
  577         13     0.01061
  578         15     0.00887
  579         15     0.01221
  580         15     0.01094
  581         18     0.01251
  582          8     0.00706
  583         14     0.00962
  584         20     0.01826
  585         17     0.01435
  586         13     0.00897
  587         17     0.00862
  588         17     0.01161
  589         11     0.00716
  590         25     0.00964
  591         14     0.00785
  592         14     0.01547
  593         13     0.01255
  594         17     0.01353
  595          9     0.01001
  596         13     0.00769
  597         15     0.01274
  598         18     0.01333
  599         13     0.00738
  600         14     0.00780
  601         14     0.01623
  602         15     0.01064
  603         11     0.00799
  604          8     0.01201
  605         11     0.00962
  606         16     0.01410
  607         14     0.01478
  608         13     0.00744
  609         13     0.01051
  610         19     0.01376
  611         14     0.00768
  612          9     0.00752
  613         14     0.00934
  614          9     0.00768
  615          9     0.00774
  616         14     0.01332
  617         15     0.00811
  618          7     0.00956
  619          6     0.01066
  620         13     0.00755
  621         10     0.01042
  622         16     0.00822
  623          7     0.00666
  624         10     0.01229
  625         12     0.01362
  626         10     0.00748
  627         10     0.00768
  628          7     0.00974
  629         15     0.00830
  630         12     0.03600
  631         13     0.02048
  632          8     0.00743
  633         10     0.00728
  634         11     0.00808
  635          9     0.00932
  636          8     0.01174
  637          9     0.00743
  638         12     0.01635
  639          9     0.00733
  640          8     0.01014
  641          8     0.04016
  642         12     0.00812
  643          7     0.00698
  644          5     0.00643
  645          6     0.00729
  646          7     0.00709
  647          6     0.01620
  648          8     0.00787
  649          4     0.00674
  650          9     0.00712
  651          6     0.00683
  652          5     0.00793
  653         11     0.00730
  654          7     0.00966
  655          5     0.00613
  656          3     0.00571
  657          5     0.00636
  658          7     0.00677
  659          3     0.00631
  660          8     0.01350
  661          5     0.00686
  662          5     0.00670
  663          5     0.00642
  664          8     0.01676
  665         12     0.00786
  666          9     0.01231
  667          9     0.00736
  668          3     0.00628
  669          6     0.00663
  670          6     0.00692
  671          3     0.00664
  672          5     0.00640
  673          6     0.00662
  674          9     0.00704
  675          5     0.00711
  676          4     0.00629
  677          7     0.00959
  678          7     0.01123
  679          4     0.00582
  680          3     0.00622
  681          5     0.01191
  682          8     0.00725
  683          2     0.00522
  684          4     0.00649
  685          2     0.00617
  686          6     0.01140
  687          6     0.00719
  688          6     0.00658
  689          2     0.00602
  690          4     0.00608
  691          3     0.00581
  692          3     0.00666
  694          5     0.00940
  695          2     0.00595
  696          4     0.00642
  697          3     0.00624
  698          1     0.00601
  699          4     0.00661
  700          5     0.01164
  701          1     0.00591
  702          1     0.00590
  703          4     0.00602
  704          4     0.00638
  705          5     0.00664
  706          6     0.00704
  707          3     0.00598
  708          6     0.00752
  709          2     0.00638
  710          5     0.01330
  711          3     0.00749
  712          5     0.00899
  713          2     0.01418
  714          6     0.00835
  715          1     0.00555
  716          2     0.00541
  717          1     0.00570
  718          2     0.00577
  719          5     0.00666
  720          4     0.00734
  721          5     0.01114
  722          2     0.00623
  723          3     0.00748
  724          4     0.00597
  725          1     0.00624
  728          1     0.01008
  729          1     0.00600
  730          2     0.00591
  731          2     0.01159
  732          2     0.00578
  733          2     0.00806
  734          1     0.00558
  735          3     0.00610
  736          3     0.00622
  737          2     0.00579
  738          1     0.00583
  739          3     0.00619
  740          1     0.00610
  741          2     0.00579
  742          1     0.00556
  743          4     0.00757
  745          1     0.00591
  746          1     0.00622
  747          3     0.01127
  748          2     0.00632
  749          4     0.01086
  750          1     0.00608
  752          3     0.00612
  753          1     0.00591
  754          2     0.00634
  755          1     0.00619
  758          3     0.00669
  759          2     0.00574
  760          3     0.00543
  761          2     0.00601
  763          4     0.00617
  764          3     0.00603
  766          3     0.00655
  769          1     0.00570
  770          4     0.00801
  771          1     0.00604
  773          1     0.00601
  774          3     0.00619
  775          3     0.00938
  776          1     0.00621
  777          1     0.00585
  778          2     0.00573
  779          1     0.00552
  780          2     0.00620
  782          2     0.00659
  783          1     0.00613
  786          2     0.01773
  788          5     0.00968
  789          1     0.00621
  792          4     0.01075
  794          2     0.00754
  795          1     0.00623
  797          3     0.00645
  798          1     0.01177
  799          2     0.00670
  800          2     0.00630
  804          2     0.01010
  805          1     0.01056
  809          3     0.00649
  811          1     0.00660
  812          1     0.00574
  813          2     0.00596
  814          2     0.00617
  815          1     0.01029
  816          1     0.00618
  817          3     0.01006
  818          2     0.00619
  819          1     0.00608
  821          3     0.00646
  824          3     0.00611
  829          1     0.00598
  830          1     0.00564
  831          2     0.01214
  833          2     0.00630
  834          1     0.00626
  837          1     0.00628
  848          2     0.00608
  849          2     0.00643
  850          1     0.00594
  851          1     0.00597
  855          1     0.00621
  856          1     0.00595
  857          1     0.00611
  858          1     0.00633
  859          1     0.00591
  861          1     0.00596
  862          1     0.00956
  867          1     0.00545
  870          1     0.00604
  871          2     0.00955
  872          2     0.00576
  876          1     0.00605
  877          1     0.00655
  879          1     0.00633
  880          1     0.00594
  881          1     0.00549
  887          1     0.00594
  893          1     0.00592
  896          1     0.00598
  899          1     0.00634
  900          1     0.00609
  901          1     0.00602
  908          1     0.00661
  930          1     0.00602
  932          1     0.00621
  941          1     0.01024
  945          2     0.01045
  947          1     0.00630
  951          1     0.00673
  952          1     0.00676
  956          1     0.00889
  961          1     0.00642
  962          1     0.00603
  972          1     0.00658
  989          1     0.00553
  993          1     0.00577
 1002          1     0.00543
 1003          1     0.00564
 1005          1     0.00612
 1009          1     0.00616
 1017          1     0.00549
 1041          1     0.00559
 1046          1     0.01434
 1049          2     0.00636
 1050          1     0.00570
 1051          1     0.00613
 1078          1     0.00618
 1097          1     0.00652
 1238          1     0.00549
took 681 iterations
Trial Time:          0.04864
Average Time:        0.04277
Exiting @ tick 1397602147000 because exiting with last active thread context
