
---------- Begin Simulation Statistics ----------
final_tick                               517447484500                       # Number of ticks from beginning of simulation (restored from checkpoints and never reset)
host_inst_rate                                  63089                       # Simulator instruction rate (inst/s)
host_mem_usage                                 702636                       # Number of bytes of host memory used
host_op_rate                                    63299                       # Simulator op (including micro ops) rate (op/s)
host_seconds                                  9708.94                       # Real time elapsed on the host
host_tick_rate                               53295989                       # Simulator tick rate (ticks/s)
sim_freq                                 1000000000000                       # Frequency of simulated ticks
sim_insts                                   612529106                       # Number of instructions simulated
sim_ops                                     614566678                       # Number of ops (including micro ops) simulated
sim_seconds                                  0.517447                       # Number of seconds simulated
sim_ticks                                517447484500                       # Number of ticks simulated
system.cpu0.branchPred.BTBCorrect                   0                       # Number of correct BTB predictions (this stat may not work properly.
system.cpu0.branchPred.BTBHitPct            86.825545                       # BTB Hit Percentage
system.cpu0.branchPred.BTBHits               77994778                       # Number of BTB hits
system.cpu0.branchPred.BTBLookups            89829298                       # Number of BTB lookups
system.cpu0.branchPred.RASInCorrect                 0                       # Number of incorrect RAS predictions.
system.cpu0.branchPred.condIncorrect          7225941                       # Number of conditional branches incorrect
system.cpu0.branchPred.condPredicted        121733526                       # Number of conditional branches predicted
system.cpu0.branchPred.indirectHits          10790410                       # Number of indirect target hits.
system.cpu0.branchPred.indirectLookups       11046810                       # Number of indirect predictor lookups.
system.cpu0.branchPred.indirectMisses          256400                       # Number of indirect misses.
system.cpu0.branchPred.lookups              155923880                       # Number of BP lookups
system.cpu0.branchPred.usedRAS                      0                       # Number of times the RAS was used to get a target.
system.cpu0.branchPredindirectMispredicted      1060647                       # Number of mispredicted indirect branches.
system.cpu0.commit.amos                       1018199                       # Number of atomic instructions committed
system.cpu0.commit.branchMispredicts          5028267                       # The number of times a branch was mispredicted
system.cpu0.commit.branches                 143198234                       # Number of branches committed
system.cpu0.commit.bw_lim_events             15729195                       # number cycles where commit BW limit reached
system.cpu0.commit.commitNonSpecStalls        3058462                       # The number of times commit has been forced to stall to communicate backwards
system.cpu0.commit.commitSquashedInsts       34591273                       # The number of squashed insts skipped by commit
system.cpu0.commit.committedInsts           580266843                       # Number of instructions committed
system.cpu0.commit.committedOps             581286323                       # Number of ops (including micro ops) committed
system.cpu0.commit.committed_per_cycle::samples    944593022                       # Number of insts commited each cycle
system.cpu0.commit.committed_per_cycle::mean     0.615383                       # Number of insts commited each cycle
system.cpu0.commit.committed_per_cycle::stdev     1.380638                       # Number of insts commited each cycle
system.cpu0.commit.committed_per_cycle::underflows            0      0.00%      0.00% # Number of insts commited each cycle
system.cpu0.commit.committed_per_cycle::0    665676149     70.47%     70.47% # Number of insts commited each cycle
system.cpu0.commit.committed_per_cycle::1    166288628     17.60%     88.08% # Number of insts commited each cycle
system.cpu0.commit.committed_per_cycle::2     38139867      4.04%     92.11% # Number of insts commited each cycle
system.cpu0.commit.committed_per_cycle::3     37319525      3.95%     96.07% # Number of insts commited each cycle
system.cpu0.commit.committed_per_cycle::4     12830356      1.36%     97.42% # Number of insts commited each cycle
system.cpu0.commit.committed_per_cycle::5      4157346      0.44%     97.86% # Number of insts commited each cycle
system.cpu0.commit.committed_per_cycle::6      2346020      0.25%     98.11% # Number of insts commited each cycle
system.cpu0.commit.committed_per_cycle::7      2105936      0.22%     98.33% # Number of insts commited each cycle
system.cpu0.commit.committed_per_cycle::8     15729195      1.67%    100.00% # Number of insts commited each cycle
system.cpu0.commit.committed_per_cycle::overflows            0      0.00%    100.00% # Number of insts commited each cycle
system.cpu0.commit.committed_per_cycle::min_value            0                       # Number of insts commited each cycle
system.cpu0.commit.committed_per_cycle::max_value            8                       # Number of insts commited each cycle
system.cpu0.commit.committed_per_cycle::total    944593022                       # Number of insts commited each cycle
system.cpu0.commit.fp_insts                        50                       # Number of committed floating point instructions.
system.cpu0.commit.function_calls            11887121                       # Number of function calls committed.
system.cpu0.commit.int_insts                561268954                       # Number of committed integer instructions.
system.cpu0.commit.loads                    179948478                       # Number of loads committed
system.cpu0.commit.membars                    2037578                       # Number of memory barriers committed
system.cpu0.commit.op_class_0::No_OpClass      2037584      0.35%      0.35% # Class of committed instruction
system.cpu0.commit.op_class_0::IntAlu       322216479     55.43%     55.78% # Class of committed instruction
system.cpu0.commit.op_class_0::IntMult        4137068      0.71%     56.49% # Class of committed instruction
system.cpu0.commit.op_class_0::IntDiv         1017773      0.18%     56.67% # Class of committed instruction
system.cpu0.commit.op_class_0::FloatAdd             0      0.00%     56.67% # Class of committed instruction
system.cpu0.commit.op_class_0::FloatCmp             4      0.00%     56.67% # Class of committed instruction
system.cpu0.commit.op_class_0::FloatCvt            12      0.00%     56.67% # Class of committed instruction
system.cpu0.commit.op_class_0::FloatMult            0      0.00%     56.67% # Class of committed instruction
system.cpu0.commit.op_class_0::FloatMultAcc            0      0.00%     56.67% # Class of committed instruction
system.cpu0.commit.op_class_0::FloatDiv             2      0.00%     56.67% # Class of committed instruction
system.cpu0.commit.op_class_0::FloatMisc            4      0.00%     56.67% # Class of committed instruction
system.cpu0.commit.op_class_0::FloatSqrt            0      0.00%     56.67% # Class of committed instruction
system.cpu0.commit.op_class_0::SimdAdd              0      0.00%     56.67% # Class of committed instruction
system.cpu0.commit.op_class_0::SimdAddAcc            0      0.00%     56.67% # Class of committed instruction
system.cpu0.commit.op_class_0::SimdAlu              0      0.00%     56.67% # Class of committed instruction
system.cpu0.commit.op_class_0::SimdCmp              0      0.00%     56.67% # Class of committed instruction
system.cpu0.commit.op_class_0::SimdCvt              0      0.00%     56.67% # Class of committed instruction
system.cpu0.commit.op_class_0::SimdMisc             0      0.00%     56.67% # Class of committed instruction
system.cpu0.commit.op_class_0::SimdMult             0      0.00%     56.67% # Class of committed instruction
system.cpu0.commit.op_class_0::SimdMultAcc            0      0.00%     56.67% # Class of committed instruction
system.cpu0.commit.op_class_0::SimdShift            0      0.00%     56.67% # Class of committed instruction
system.cpu0.commit.op_class_0::SimdShiftAcc            0      0.00%     56.67% # Class of committed instruction
system.cpu0.commit.op_class_0::SimdDiv              0      0.00%     56.67% # Class of committed instruction
system.cpu0.commit.op_class_0::SimdSqrt             0      0.00%     56.67% # Class of committed instruction
system.cpu0.commit.op_class_0::SimdFloatAdd            0      0.00%     56.67% # Class of committed instruction
system.cpu0.commit.op_class_0::SimdFloatAlu            0      0.00%     56.67% # Class of committed instruction
system.cpu0.commit.op_class_0::SimdFloatCmp            0      0.00%     56.67% # Class of committed instruction
system.cpu0.commit.op_class_0::SimdFloatCvt            0      0.00%     56.67% # Class of committed instruction
system.cpu0.commit.op_class_0::SimdFloatDiv            0      0.00%     56.67% # Class of committed instruction
system.cpu0.commit.op_class_0::SimdFloatMisc            0      0.00%     56.67% # Class of committed instruction
system.cpu0.commit.op_class_0::SimdFloatMult            0      0.00%     56.67% # Class of committed instruction
system.cpu0.commit.op_class_0::SimdFloatMultAcc            0      0.00%     56.67% # Class of committed instruction
system.cpu0.commit.op_class_0::SimdFloatSqrt            0      0.00%     56.67% # Class of committed instruction
system.cpu0.commit.op_class_0::SimdReduceAdd            0      0.00%     56.67% # Class of committed instruction
system.cpu0.commit.op_class_0::SimdReduceAlu            0      0.00%     56.67% # Class of committed instruction
system.cpu0.commit.op_class_0::SimdReduceCmp            0      0.00%     56.67% # Class of committed instruction
system.cpu0.commit.op_class_0::SimdFloatReduceAdd            0      0.00%     56.67% # Class of committed instruction
system.cpu0.commit.op_class_0::SimdFloatReduceCmp            0      0.00%     56.67% # Class of committed instruction
system.cpu0.commit.op_class_0::SimdAes              0      0.00%     56.67% # Class of committed instruction
system.cpu0.commit.op_class_0::SimdAesMix            0      0.00%     56.67% # Class of committed instruction
system.cpu0.commit.op_class_0::SimdSha1Hash            0      0.00%     56.67% # Class of committed instruction
system.cpu0.commit.op_class_0::SimdSha1Hash2            0      0.00%     56.67% # Class of committed instruction
system.cpu0.commit.op_class_0::SimdSha256Hash            0      0.00%     56.67% # Class of committed instruction
system.cpu0.commit.op_class_0::SimdSha256Hash2            0      0.00%     56.67% # Class of committed instruction
system.cpu0.commit.op_class_0::SimdShaSigma2            0      0.00%     56.67% # Class of committed instruction
system.cpu0.commit.op_class_0::SimdShaSigma3            0      0.00%     56.67% # Class of committed instruction
system.cpu0.commit.op_class_0::SimdPredAlu            0      0.00%     56.67% # Class of committed instruction
system.cpu0.commit.op_class_0::MemRead      180966669     31.13%     87.80% # Class of committed instruction
system.cpu0.commit.op_class_0::MemWrite      70910700     12.20%    100.00% # Class of committed instruction
system.cpu0.commit.op_class_0::FloatMemRead            8      0.00%    100.00% # Class of committed instruction
system.cpu0.commit.op_class_0::FloatMemWrite           20      0.00%    100.00% # Class of committed instruction
system.cpu0.commit.op_class_0::IprAccess            0      0.00%    100.00% # Class of committed instruction
system.cpu0.commit.op_class_0::InstPrefetch            0      0.00%    100.00% # Class of committed instruction
system.cpu0.commit.op_class_0::total        581286323                       # Class of committed instruction
system.cpu0.commit.refs                     251877397                       # Number of memory references committed
system.cpu0.commit.swp_count                        0                       # Number of s/w prefetches committed
system.cpu0.commit.vec_insts                        0                       # Number of committed Vector instructions.
system.cpu0.committedInsts                  580266843                       # Number of Instructions Simulated
system.cpu0.committedOps                    581286323                       # Number of Ops (including micro ops) Simulated
system.cpu0.cpi                              1.766965                       # CPI: Cycles Per Instruction
system.cpu0.cpi_total                        1.766965                       # CPI: Total CPI of All Threads
system.cpu0.decode.BlockedCycles            166631425                       # Number of cycles decode is blocked
system.cpu0.decode.BranchMispred              2204161                       # Number of times decode detected a branch misprediction
system.cpu0.decode.BranchResolved            77034508                       # Number of times decode resolved a branch
system.cpu0.decode.DecodedInsts             629581240                       # Number of instructions handled by decode
system.cpu0.decode.IdleCycles               349588369                       # Number of cycles decode is idle
system.cpu0.decode.RunCycles                428133960                       # Number of cycles decode is running
system.cpu0.decode.SquashCycles               5032686                       # Number of cycles decode is squashing
system.cpu0.decode.SquashedInsts              7662259                       # Number of squashed instructions handled by decode
system.cpu0.decode.UnblockCycles              3001650                       # Number of cycles decode is unblocking
system.cpu0.dtb.accesses                            0                       # DTB accesses
system.cpu0.dtb.hits                                0                       # DTB hits
system.cpu0.dtb.misses                              0                       # DTB misses
system.cpu0.dtb.read_accesses                       0                       # DTB read accesses
system.cpu0.dtb.read_hits                           0                       # DTB read hits
system.cpu0.dtb.read_misses                         0                       # DTB read misses
system.cpu0.dtb.write_accesses                      0                       # DTB write accesses
system.cpu0.dtb.write_hits                          0                       # DTB write hits
system.cpu0.dtb.write_misses                        0                       # DTB write misses
system.cpu0.fetch.Branches                  155923880                       # Number of branches that fetch encountered
system.cpu0.fetch.CacheLines                101998501                       # Number of cache lines fetched
system.cpu0.fetch.Cycles                    603759656                       # Number of cycles fetch has run and was not squashing or blocked
system.cpu0.fetch.IcacheSquashes              2512883                       # Number of outstanding Icache misses that were squashed
system.cpu0.fetch.IcacheWaitRetryStallCycles          142                       # Number of stall cycles due to full MSHR
system.cpu0.fetch.Insts                     642943221                       # Number of instructions fetch has processed
system.cpu0.fetch.MiscStallCycles                  16                       # Number of cycles fetch has spent waiting on interrupts, or bad addresses, or out of MSHRs
system.cpu0.fetch.PendingTrapStallCycles           36                       # Number of stall cycles due to pending traps
system.cpu0.fetch.SquashCycles               14460728                       # Number of cycles fetch has spent squashing
system.cpu0.fetch.branchRate                 0.152075                       # Number of branch fetches per cycle
system.cpu0.fetch.icacheStallCycles         341397876                       # Number of cycles fetch is stalled on an Icache miss
system.cpu0.fetch.predictedBranches          88785188                       # Number of branches that fetch has predicted taken
system.cpu0.fetch.rate                       0.627071                       # Number of inst fetches per cycle
system.cpu0.fetch.rateDist::samples         952388090                       # Number of instructions fetched each cycle (Total)
system.cpu0.fetch.rateDist::mean             0.676156                       # Number of instructions fetched each cycle (Total)
system.cpu0.fetch.rateDist::stdev            0.929221                       # Number of instructions fetched each cycle (Total)
system.cpu0.fetch.rateDist::underflows              0      0.00%      0.00% # Number of instructions fetched each cycle (Total)
system.cpu0.fetch.rateDist::0               505003193     53.02%     53.02% # Number of instructions fetched each cycle (Total)
system.cpu0.fetch.rateDist::1               328335634     34.47%     87.50% # Number of instructions fetched each cycle (Total)
system.cpu0.fetch.rateDist::2                61484327      6.46%     93.96% # Number of instructions fetched each cycle (Total)
system.cpu0.fetch.rateDist::3                44046058      4.62%     98.58% # Number of instructions fetched each cycle (Total)
system.cpu0.fetch.rateDist::4                10395532      1.09%     99.67% # Number of instructions fetched each cycle (Total)
system.cpu0.fetch.rateDist::5                 1842765      0.19%     99.87% # Number of instructions fetched each cycle (Total)
system.cpu0.fetch.rateDist::6                  259804      0.03%     99.89% # Number of instructions fetched each cycle (Total)
system.cpu0.fetch.rateDist::7                     424      0.00%     99.89% # Number of instructions fetched each cycle (Total)
system.cpu0.fetch.rateDist::8                 1020353      0.11%    100.00% # Number of instructions fetched each cycle (Total)
system.cpu0.fetch.rateDist::overflows               0      0.00%    100.00% # Number of instructions fetched each cycle (Total)
system.cpu0.fetch.rateDist::min_value               0                       # Number of instructions fetched each cycle (Total)
system.cpu0.fetch.rateDist::max_value               8                       # Number of instructions fetched each cycle (Total)
system.cpu0.fetch.rateDist::total           952388090                       # Number of instructions fetched each cycle (Total)
system.cpu0.fp_regfile_reads                       44                       # number of floating regfile reads
system.cpu0.fp_regfile_writes                      24                       # number of floating regfile writes
system.cpu0.idleCycles                       72923215                       # Total number of cycles that the CPU has spent unscheduled due to idling
system.cpu0.iew.branchMispredicts             5147328                       # Number of branch mispredicts detected at execute
system.cpu0.iew.exec_branches               147499249                       # Number of branches executed
system.cpu0.iew.exec_nop                            0                       # number of nop insts executed
system.cpu0.iew.exec_rate                    0.594117                       # Inst execution rate
system.cpu0.iew.exec_refs                   268281037                       # number of memory reference insts executed
system.cpu0.iew.exec_stores                  74511929                       # Number of stores executed
system.cpu0.iew.exec_swp                            0                       # number of swp insts executed
system.cpu0.iew.iewBlockCycles              141216438                       # Number of cycles IEW is blocking
system.cpu0.iew.iewDispLoadInsts            193916590                       # Number of dispatched load instructions
system.cpu0.iew.iewDispNonSpecInsts           1021091                       # Number of dispatched non-speculative instructions
system.cpu0.iew.iewDispSquashedInsts          3203051                       # Number of squashed instructions skipped by dispatch
system.cpu0.iew.iewDispStoreInsts            75271960                       # Number of dispatched store instructions
system.cpu0.iew.iewDispatchedInsts          615861864                       # Number of instructions dispatched to IQ
system.cpu0.iew.iewExecLoadInsts            193769108                       # Number of load instructions executed
system.cpu0.iew.iewExecSquashedInsts          4736485                       # Number of squashed instructions skipped in execute
system.cpu0.iew.iewExecutedInsts            609154409                       # Number of executed instructions
system.cpu0.iew.iewIQFullEvents               1004607                       # Number of times the IQ has become full, causing a stall
system.cpu0.iew.iewIdleCycles                       0                       # Number of cycles IEW is idle
system.cpu0.iew.iewLSQFullEvents              2136542                       # Number of times the LSQ has become full, causing a stall
system.cpu0.iew.iewSquashCycles               5032686                       # Number of cycles IEW is squashing
system.cpu0.iew.iewUnblockCycles              4211910                       # Number of cycles IEW is unblocking
system.cpu0.iew.lsq.thread0.blockedLoads            0                       # Number of blocked loads due to partial load-store forwarding
system.cpu0.iew.lsq.thread0.cacheBlocked        54331                       # Number of times an access to memory failed due to the cache being blocked
system.cpu0.iew.lsq.thread0.forwLoads         8950914                       # Number of loads that had data forwarded from stores
system.cpu0.iew.lsq.thread0.ignoredResponses        33040                       # Number of memory responses ignored because the instruction is squashed
system.cpu0.iew.lsq.thread0.invAddrLoads            0                       # Number of loads ignored due to an invalid address
system.cpu0.iew.lsq.thread0.invAddrSwpfs            0                       # Number of software prefetches ignored due to an invalid address
system.cpu0.iew.lsq.thread0.memOrderViolation         4637                       # Number of memory ordering violations
system.cpu0.iew.lsq.thread0.rescheduledLoads      2421767                       # Number of loads that were rescheduled
system.cpu0.iew.lsq.thread0.squashedLoads     13968112                       # Number of loads squashed
system.cpu0.iew.lsq.thread0.squashedStores      3343041                       # Number of stores squashed
system.cpu0.iew.memOrderViolationEvents          4637                       # Number of memory order violations
system.cpu0.iew.predictedNotTakenIncorrect       870135                       # Number of branches that were predicted not taken incorrectly
system.cpu0.iew.predictedTakenIncorrect       4277193                       # Number of branches that were predicted taken incorrectly
system.cpu0.iew.wb_consumers                274315662                       # num instructions consuming a value
system.cpu0.iew.wb_count                    603359426                       # cumulative count of insts written-back
system.cpu0.iew.wb_fanout                    0.840698                       # average fanout of values written-back
system.cpu0.iew.wb_producers                230616643                       # num instructions producing a value
system.cpu0.iew.wb_rate                      0.588465                       # insts written-back per cycle
system.cpu0.iew.wb_sent                     603406111                       # cumulative count of insts sent to commit
system.cpu0.int_regfile_reads               743345296                       # number of integer regfile reads
system.cpu0.int_regfile_writes              385893540                       # number of integer regfile writes
system.cpu0.ipc                              0.565942                       # IPC: Instructions Per Cycle
system.cpu0.ipc_total                        0.565942                       # IPC: Total IPC of All Threads
system.cpu0.iq.FU_type_0::No_OpClass          2038433      0.33%      0.33% # Type of FU issued
system.cpu0.iq.FU_type_0::IntAlu            336491578     54.81%     55.14% # Type of FU issued
system.cpu0.iq.FU_type_0::IntMult             4213081      0.69%     55.83% # Type of FU issued
system.cpu0.iq.FU_type_0::IntDiv              1018049      0.17%     56.00% # Type of FU issued
system.cpu0.iq.FU_type_0::FloatAdd                  0      0.00%     56.00% # Type of FU issued
system.cpu0.iq.FU_type_0::FloatCmp                  4      0.00%     56.00% # Type of FU issued
system.cpu0.iq.FU_type_0::FloatCvt                 12      0.00%     56.00% # Type of FU issued
system.cpu0.iq.FU_type_0::FloatMult                 0      0.00%     56.00% # Type of FU issued
system.cpu0.iq.FU_type_0::FloatMultAcc              0      0.00%     56.00% # Type of FU issued
system.cpu0.iq.FU_type_0::FloatDiv                  2      0.00%     56.00% # Type of FU issued
system.cpu0.iq.FU_type_0::FloatMisc                 4      0.00%     56.00% # Type of FU issued
system.cpu0.iq.FU_type_0::FloatSqrt                 0      0.00%     56.00% # Type of FU issued
system.cpu0.iq.FU_type_0::SimdAdd                   0      0.00%     56.00% # Type of FU issued
system.cpu0.iq.FU_type_0::SimdAddAcc                0      0.00%     56.00% # Type of FU issued
system.cpu0.iq.FU_type_0::SimdAlu                   0      0.00%     56.00% # Type of FU issued
system.cpu0.iq.FU_type_0::SimdCmp                   0      0.00%     56.00% # Type of FU issued
system.cpu0.iq.FU_type_0::SimdCvt                   0      0.00%     56.00% # Type of FU issued
system.cpu0.iq.FU_type_0::SimdMisc                  0      0.00%     56.00% # Type of FU issued
system.cpu0.iq.FU_type_0::SimdMult                  0      0.00%     56.00% # Type of FU issued
system.cpu0.iq.FU_type_0::SimdMultAcc               0      0.00%     56.00% # Type of FU issued
system.cpu0.iq.FU_type_0::SimdShift                 0      0.00%     56.00% # Type of FU issued
system.cpu0.iq.FU_type_0::SimdShiftAcc              0      0.00%     56.00% # Type of FU issued
system.cpu0.iq.FU_type_0::SimdDiv                   0      0.00%     56.00% # Type of FU issued
system.cpu0.iq.FU_type_0::SimdSqrt                  0      0.00%     56.00% # Type of FU issued
system.cpu0.iq.FU_type_0::SimdFloatAdd              0      0.00%     56.00% # Type of FU issued
system.cpu0.iq.FU_type_0::SimdFloatAlu              0      0.00%     56.00% # Type of FU issued
system.cpu0.iq.FU_type_0::SimdFloatCmp              0      0.00%     56.00% # Type of FU issued
system.cpu0.iq.FU_type_0::SimdFloatCvt              0      0.00%     56.00% # Type of FU issued
system.cpu0.iq.FU_type_0::SimdFloatDiv              0      0.00%     56.00% # Type of FU issued
system.cpu0.iq.FU_type_0::SimdFloatMisc             0      0.00%     56.00% # Type of FU issued
system.cpu0.iq.FU_type_0::SimdFloatMult             0      0.00%     56.00% # Type of FU issued
system.cpu0.iq.FU_type_0::SimdFloatMultAcc            0      0.00%     56.00% # Type of FU issued
system.cpu0.iq.FU_type_0::SimdFloatSqrt             0      0.00%     56.00% # Type of FU issued
system.cpu0.iq.FU_type_0::SimdReduceAdd             0      0.00%     56.00% # Type of FU issued
system.cpu0.iq.FU_type_0::SimdReduceAlu             0      0.00%     56.00% # Type of FU issued
system.cpu0.iq.FU_type_0::SimdReduceCmp             0      0.00%     56.00% # Type of FU issued
system.cpu0.iq.FU_type_0::SimdFloatReduceAdd            0      0.00%     56.00% # Type of FU issued
system.cpu0.iq.FU_type_0::SimdFloatReduceCmp            0      0.00%     56.00% # Type of FU issued
system.cpu0.iq.FU_type_0::SimdAes                   0      0.00%     56.00% # Type of FU issued
system.cpu0.iq.FU_type_0::SimdAesMix                0      0.00%     56.00% # Type of FU issued
system.cpu0.iq.FU_type_0::SimdSha1Hash              0      0.00%     56.00% # Type of FU issued
system.cpu0.iq.FU_type_0::SimdSha1Hash2             0      0.00%     56.00% # Type of FU issued
system.cpu0.iq.FU_type_0::SimdSha256Hash            0      0.00%     56.00% # Type of FU issued
system.cpu0.iq.FU_type_0::SimdSha256Hash2            0      0.00%     56.00% # Type of FU issued
system.cpu0.iq.FU_type_0::SimdShaSigma2             0      0.00%     56.00% # Type of FU issued
system.cpu0.iq.FU_type_0::SimdShaSigma3             0      0.00%     56.00% # Type of FU issued
system.cpu0.iq.FU_type_0::SimdPredAlu               0      0.00%     56.00% # Type of FU issued
system.cpu0.iq.FU_type_0::MemRead           196346770     31.98%     87.98% # Type of FU issued
system.cpu0.iq.FU_type_0::MemWrite           73782931     12.02%    100.00% # Type of FU issued
system.cpu0.iq.FU_type_0::FloatMemRead             10      0.00%    100.00% # Type of FU issued
system.cpu0.iq.FU_type_0::FloatMemWrite            20      0.00%    100.00% # Type of FU issued
system.cpu0.iq.FU_type_0::IprAccess                 0      0.00%    100.00% # Type of FU issued
system.cpu0.iq.FU_type_0::InstPrefetch              0      0.00%    100.00% # Type of FU issued
system.cpu0.iq.FU_type_0::total             613890894                       # Type of FU issued
system.cpu0.iq.fp_alu_accesses                     56                       # Number of floating point alu accesses
system.cpu0.iq.fp_inst_queue_reads                108                       # Number of floating instruction queue reads
system.cpu0.iq.fp_inst_queue_wakeup_accesses           52                       # Number of floating instruction queue wakeup accesses
system.cpu0.iq.fp_inst_queue_writes                54                       # Number of floating instruction queue writes
system.cpu0.iq.fu_busy_cnt                    1160050                       # FU busy when requested
system.cpu0.iq.fu_busy_rate                  0.001890                       # FU busy rate (busy events/executed inst)
system.cpu0.iq.fu_full::No_OpClass                  0      0.00%      0.00% # attempts to use FU when none available
system.cpu0.iq.fu_full::IntAlu                 170340     14.68%     14.68% # attempts to use FU when none available
system.cpu0.iq.fu_full::IntMult                     4      0.00%     14.68% # attempts to use FU when none available
system.cpu0.iq.fu_full::IntDiv                      0      0.00%     14.68% # attempts to use FU when none available
system.cpu0.iq.fu_full::FloatAdd                    0      0.00%     14.68% # attempts to use FU when none available
system.cpu0.iq.fu_full::FloatCmp                    0      0.00%     14.68% # attempts to use FU when none available
system.cpu0.iq.fu_full::FloatCvt                    0      0.00%     14.68% # attempts to use FU when none available
system.cpu0.iq.fu_full::FloatMult                   0      0.00%     14.68% # attempts to use FU when none available
system.cpu0.iq.fu_full::FloatMultAcc                0      0.00%     14.68% # attempts to use FU when none available
system.cpu0.iq.fu_full::FloatDiv                    0      0.00%     14.68% # attempts to use FU when none available
system.cpu0.iq.fu_full::FloatMisc                   0      0.00%     14.68% # attempts to use FU when none available
system.cpu0.iq.fu_full::FloatSqrt                   0      0.00%     14.68% # attempts to use FU when none available
system.cpu0.iq.fu_full::SimdAdd                     0      0.00%     14.68% # attempts to use FU when none available
system.cpu0.iq.fu_full::SimdAddAcc                  0      0.00%     14.68% # attempts to use FU when none available
system.cpu0.iq.fu_full::SimdAlu                     0      0.00%     14.68% # attempts to use FU when none available
system.cpu0.iq.fu_full::SimdCmp                     0      0.00%     14.68% # attempts to use FU when none available
system.cpu0.iq.fu_full::SimdCvt                     0      0.00%     14.68% # attempts to use FU when none available
system.cpu0.iq.fu_full::SimdMisc                    0      0.00%     14.68% # attempts to use FU when none available
system.cpu0.iq.fu_full::SimdMult                    0      0.00%     14.68% # attempts to use FU when none available
system.cpu0.iq.fu_full::SimdMultAcc                 0      0.00%     14.68% # attempts to use FU when none available
system.cpu0.iq.fu_full::SimdShift                   0      0.00%     14.68% # attempts to use FU when none available
system.cpu0.iq.fu_full::SimdShiftAcc                0      0.00%     14.68% # attempts to use FU when none available
system.cpu0.iq.fu_full::SimdDiv                     0      0.00%     14.68% # attempts to use FU when none available
system.cpu0.iq.fu_full::SimdSqrt                    0      0.00%     14.68% # attempts to use FU when none available
system.cpu0.iq.fu_full::SimdFloatAdd                0      0.00%     14.68% # attempts to use FU when none available
system.cpu0.iq.fu_full::SimdFloatAlu                0      0.00%     14.68% # attempts to use FU when none available
system.cpu0.iq.fu_full::SimdFloatCmp                0      0.00%     14.68% # attempts to use FU when none available
system.cpu0.iq.fu_full::SimdFloatCvt                0      0.00%     14.68% # attempts to use FU when none available
system.cpu0.iq.fu_full::SimdFloatDiv                0      0.00%     14.68% # attempts to use FU when none available
system.cpu0.iq.fu_full::SimdFloatMisc               0      0.00%     14.68% # attempts to use FU when none available
system.cpu0.iq.fu_full::SimdFloatMult               0      0.00%     14.68% # attempts to use FU when none available
system.cpu0.iq.fu_full::SimdFloatMultAcc            0      0.00%     14.68% # attempts to use FU when none available
system.cpu0.iq.fu_full::SimdFloatSqrt               0      0.00%     14.68% # attempts to use FU when none available
system.cpu0.iq.fu_full::SimdReduceAdd               0      0.00%     14.68% # attempts to use FU when none available
system.cpu0.iq.fu_full::SimdReduceAlu               0      0.00%     14.68% # attempts to use FU when none available
system.cpu0.iq.fu_full::SimdReduceCmp               0      0.00%     14.68% # attempts to use FU when none available
system.cpu0.iq.fu_full::SimdFloatReduceAdd            0      0.00%     14.68% # attempts to use FU when none available
system.cpu0.iq.fu_full::SimdFloatReduceCmp            0      0.00%     14.68% # attempts to use FU when none available
system.cpu0.iq.fu_full::SimdAes                     0      0.00%     14.68% # attempts to use FU when none available
system.cpu0.iq.fu_full::SimdAesMix                  0      0.00%     14.68% # attempts to use FU when none available
system.cpu0.iq.fu_full::SimdSha1Hash                0      0.00%     14.68% # attempts to use FU when none available
system.cpu0.iq.fu_full::SimdSha1Hash2               0      0.00%     14.68% # attempts to use FU when none available
system.cpu0.iq.fu_full::SimdSha256Hash              0      0.00%     14.68% # attempts to use FU when none available
system.cpu0.iq.fu_full::SimdSha256Hash2             0      0.00%     14.68% # attempts to use FU when none available
system.cpu0.iq.fu_full::SimdShaSigma2               0      0.00%     14.68% # attempts to use FU when none available
system.cpu0.iq.fu_full::SimdShaSigma3               0      0.00%     14.68% # attempts to use FU when none available
system.cpu0.iq.fu_full::SimdPredAlu                 0      0.00%     14.68% # attempts to use FU when none available
system.cpu0.iq.fu_full::MemRead                882426     76.07%     90.75% # attempts to use FU when none available
system.cpu0.iq.fu_full::MemWrite               107276      9.25%    100.00% # attempts to use FU when none available
system.cpu0.iq.fu_full::FloatMemRead                0      0.00%    100.00% # attempts to use FU when none available
system.cpu0.iq.fu_full::FloatMemWrite               4      0.00%    100.00% # attempts to use FU when none available
system.cpu0.iq.fu_full::IprAccess                   0      0.00%    100.00% # attempts to use FU when none available
system.cpu0.iq.fu_full::InstPrefetch                0      0.00%    100.00% # attempts to use FU when none available
system.cpu0.iq.int_alu_accesses             613012455                       # Number of integer alu accesses
system.cpu0.iq.int_inst_queue_reads        2181394946                       # Number of integer instruction queue reads
system.cpu0.iq.int_inst_queue_wakeup_accesses    603359374                       # Number of integer instruction queue wakeup accesses
system.cpu0.iq.int_inst_queue_writes        650441341                       # Number of integer instruction queue writes
system.cpu0.iq.iqInstsAdded                 612803023                       # Number of instructions added to the IQ (excludes non-spec)
system.cpu0.iq.iqInstsIssued                613890894                       # Number of instructions issued
system.cpu0.iq.iqNonSpecInstsAdded            3058841                       # Number of non-speculative instructions added to the IQ
system.cpu0.iq.iqSquashedInstsExamined       34575538                       # Number of squashed instructions iterated over during squash; mainly for profiling
system.cpu0.iq.iqSquashedInstsIssued            65126                       # Number of squashed instructions issued
system.cpu0.iq.iqSquashedNonSpecRemoved           379                       # Number of squashed non-spec instructions that were removed
system.cpu0.iq.iqSquashedOperandsExamined     12123760                       # Number of squashed operands that are examined and possibly removed from graph
system.cpu0.iq.issued_per_cycle::samples    952388090                       # Number of insts issued each cycle
system.cpu0.iq.issued_per_cycle::mean        0.644581                       # Number of insts issued each cycle
system.cpu0.iq.issued_per_cycle::stdev       0.856798                       # Number of insts issued each cycle
system.cpu0.iq.issued_per_cycle::underflows            0      0.00%      0.00% # Number of insts issued each cycle
system.cpu0.iq.issued_per_cycle::0          524372342     55.06%     55.06% # Number of insts issued each cycle
system.cpu0.iq.issued_per_cycle::1          287400432     30.18%     85.24% # Number of insts issued each cycle
system.cpu0.iq.issued_per_cycle::2          102443299     10.76%     95.99% # Number of insts issued each cycle
system.cpu0.iq.issued_per_cycle::3           32463997      3.41%     99.40% # Number of insts issued each cycle
system.cpu0.iq.issued_per_cycle::4            4963086      0.52%     99.92% # Number of insts issued each cycle
system.cpu0.iq.issued_per_cycle::5             297814      0.03%     99.95% # Number of insts issued each cycle
system.cpu0.iq.issued_per_cycle::6             315495      0.03%     99.99% # Number of insts issued each cycle
system.cpu0.iq.issued_per_cycle::7              75511      0.01%     99.99% # Number of insts issued each cycle
system.cpu0.iq.issued_per_cycle::8              56114      0.01%    100.00% # Number of insts issued each cycle
system.cpu0.iq.issued_per_cycle::overflows            0      0.00%    100.00% # Number of insts issued each cycle
system.cpu0.iq.issued_per_cycle::min_value            0                       # Number of insts issued each cycle
system.cpu0.iq.issued_per_cycle::max_value            8                       # Number of insts issued each cycle
system.cpu0.iq.issued_per_cycle::total      952388090                       # Number of insts issued each cycle
system.cpu0.iq.rate                          0.598736                       # Inst issue rate
system.cpu0.iq.vec_alu_accesses                     0                       # Number of vector alu accesses
system.cpu0.iq.vec_inst_queue_reads                 0                       # Number of vector instruction queue reads
system.cpu0.iq.vec_inst_queue_wakeup_accesses            0                       # Number of vector instruction queue wakeup accesses
system.cpu0.iq.vec_inst_queue_writes                0                       # Number of vector instruction queue writes
system.cpu0.itb.accesses                            0                       # DTB accesses
system.cpu0.itb.hits                                0                       # DTB hits
system.cpu0.itb.misses                              0                       # DTB misses
system.cpu0.itb.read_accesses                       0                       # DTB read accesses
system.cpu0.itb.read_hits                           0                       # DTB read hits
system.cpu0.itb.read_misses                         0                       # DTB read misses
system.cpu0.itb.write_accesses                      0                       # DTB write accesses
system.cpu0.itb.write_hits                          0                       # DTB write hits
system.cpu0.itb.write_misses                        0                       # DTB write misses
system.cpu0.memDep0.conflictingLoads          9824923                       # Number of conflicting loads.
system.cpu0.memDep0.conflictingStores         2284835                       # Number of conflicting stores.
system.cpu0.memDep0.insertedLoads           193916590                       # Number of loads inserted to the mem dependence unit.
system.cpu0.memDep0.insertedStores           75271960                       # Number of stores inserted to the mem dependence unit.
system.cpu0.misc_regfile_reads                    875                       # number of misc regfile reads
system.cpu0.misc_regfile_writes                    22                       # number of misc regfile writes
system.cpu0.numCycles                      1025311305                       # number of cpu cycles simulated
system.cpu0.numWorkItemsCompleted                   0                       # number of work items this cpu completed
system.cpu0.numWorkItemsStarted                     0                       # number of work items this cpu started
system.cpu0.quiesceCycles                     9583694                       # Total number of cycles that CPU has spent quiesced or waiting for an interrupt
system.cpu0.rename.BlockCycles              153066600                       # Number of cycles rename is blocking
system.cpu0.rename.CommittedMaps            370561808                       # Number of HB maps that are committed
system.cpu0.rename.IQFullEvents               6605150                       # Number of times rename has blocked due to IQ full
system.cpu0.rename.IdleCycles               354718337                       # Number of cycles rename is idle
system.cpu0.rename.LQFullEvents               3189367                       # Number of times rename has blocked due to LQ full
system.cpu0.rename.ROBFullEvents                10775                       # Number of times rename has blocked due to ROB full
system.cpu0.rename.RenameLookups            765126148                       # Number of register rename lookups that rename has made
system.cpu0.rename.RenamedInsts             626070071                       # Number of instructions processed by rename
system.cpu0.rename.RenamedOperands          402273551                       # Number of destination operands rename has renamed
system.cpu0.rename.RunCycles                425407052                       # Number of cycles rename is running
system.cpu0.rename.SQFullEvents               4118316                       # Number of times rename has blocked due to SQ full
system.cpu0.rename.SquashCycles               5032686                       # Number of cycles rename is squashing
system.cpu0.rename.UnblockCycles             14083772                       # Number of cycles rename is unblocking
system.cpu0.rename.UndoneMaps                31711739                       # Number of HB maps that are undone due to squashing
system.cpu0.rename.fp_rename_lookups               44                       # Number of floating rename lookups
system.cpu0.rename.int_rename_lookups       765126104                       # Number of integer rename lookups
system.cpu0.rename.serializeStallCycles         79643                       # count of cycles rename stalled for serializing inst
system.cpu0.rename.serializingInsts              2778                       # count of serializing insts renamed
system.cpu0.rename.skidInsts                 13705971                       # count of insts added to the skid buffer
system.cpu0.rename.tempSerializingInsts          2769                       # count of temporary serializing insts renamed
system.cpu0.rob.rob_reads                  1544730542                       # The number of ROB reads
system.cpu0.rob.rob_writes                 1239558082                       # The number of ROB writes
system.cpu0.timesIdled                       11134119                       # Number of times that the entire CPU went into an idle state and unscheduled itself
system.cpu0.workload.numSyscalls                  842                       # Number of system calls
system.cpu1.branchPred.BTBCorrect                   0                       # Number of correct BTB predictions (this stat may not work properly.
system.cpu1.branchPred.BTBHitPct            74.416012                       # BTB Hit Percentage
system.cpu1.branchPred.BTBHits                4323737                       # Number of BTB hits
system.cpu1.branchPred.BTBLookups             5810224                       # Number of BTB lookups
system.cpu1.branchPred.RASInCorrect                 0                       # Number of incorrect RAS predictions.
system.cpu1.branchPred.condIncorrect           780756                       # Number of conditional branches incorrect
system.cpu1.branchPred.condPredicted          7461594                       # Number of conditional branches predicted
system.cpu1.branchPred.indirectHits            257487                       # Number of indirect target hits.
system.cpu1.branchPred.indirectLookups         397592                       # Number of indirect predictor lookups.
system.cpu1.branchPred.indirectMisses          140105                       # Number of indirect misses.
system.cpu1.branchPred.lookups                8417144                       # Number of BP lookups
system.cpu1.branchPred.usedRAS                      0                       # Number of times the RAS was used to get a target.
system.cpu1.branchPredindirectMispredicted         3230                       # Number of mispredicted indirect branches.
system.cpu1.commit.amos                       1017926                       # Number of atomic instructions committed
system.cpu1.commit.branchMispredicts           465442                       # The number of times a branch was mispredicted
system.cpu1.commit.branches                   7095370                       # Number of branches committed
system.cpu1.commit.bw_lim_events               619646                       # number cycles where commit BW limit reached
system.cpu1.commit.commitNonSpecStalls        3054411                       # The number of times commit has been forced to stall to communicate backwards
system.cpu1.commit.commitSquashedInsts        3314772                       # The number of squashed insts skipped by commit
system.cpu1.commit.committedInsts            32262263                       # Number of instructions committed
system.cpu1.commit.committedOps              33280355                       # Number of ops (including micro ops) committed
system.cpu1.commit.committed_per_cycle::samples    181689806                       # Number of insts commited each cycle
system.cpu1.commit.committed_per_cycle::mean     0.183171                       # Number of insts commited each cycle
system.cpu1.commit.committed_per_cycle::stdev     0.819483                       # Number of insts commited each cycle
system.cpu1.commit.committed_per_cycle::underflows            0      0.00%      0.00% # Number of insts commited each cycle
system.cpu1.commit.committed_per_cycle::0    167155921     92.00%     92.00% # Number of insts commited each cycle
system.cpu1.commit.committed_per_cycle::1      7429861      4.09%     96.09% # Number of insts commited each cycle
system.cpu1.commit.committed_per_cycle::2      2625033      1.44%     97.53% # Number of insts commited each cycle
system.cpu1.commit.committed_per_cycle::3      2192508      1.21%     98.74% # Number of insts commited each cycle
system.cpu1.commit.committed_per_cycle::4       429030      0.24%     98.98% # Number of insts commited each cycle
system.cpu1.commit.committed_per_cycle::5       184315      0.10%     99.08% # Number of insts commited each cycle
system.cpu1.commit.committed_per_cycle::6       946403      0.52%     99.60% # Number of insts commited each cycle
system.cpu1.commit.committed_per_cycle::7       107089      0.06%     99.66% # Number of insts commited each cycle
system.cpu1.commit.committed_per_cycle::8       619646      0.34%    100.00% # Number of insts commited each cycle
system.cpu1.commit.committed_per_cycle::overflows            0      0.00%    100.00% # Number of insts commited each cycle
system.cpu1.commit.committed_per_cycle::min_value            0                       # Number of insts commited each cycle
system.cpu1.commit.committed_per_cycle::max_value            8                       # Number of insts commited each cycle
system.cpu1.commit.committed_per_cycle::total    181689806                       # Number of insts commited each cycle
system.cpu1.commit.fp_insts                        12                       # Number of committed floating point instructions.
system.cpu1.commit.function_calls              320774                       # Number of function calls committed.
system.cpu1.commit.int_insts                 31047056                       # Number of committed integer instructions.
system.cpu1.commit.loads                      9248489                       # Number of loads committed
system.cpu1.commit.membars                    2035964                       # Number of memory barriers committed
system.cpu1.commit.op_class_0::No_OpClass      2035964      6.12%      6.12% # Class of committed instruction
system.cpu1.commit.op_class_0::IntAlu        19082088     57.34%     63.46% # Class of committed instruction
system.cpu1.commit.op_class_0::IntMult             42      0.00%     63.46% # Class of committed instruction
system.cpu1.commit.op_class_0::IntDiv              84      0.00%     63.46% # Class of committed instruction
system.cpu1.commit.op_class_0::FloatAdd             0      0.00%     63.46% # Class of committed instruction
system.cpu1.commit.op_class_0::FloatCmp             0      0.00%     63.46% # Class of committed instruction
system.cpu1.commit.op_class_0::FloatCvt             0      0.00%     63.46% # Class of committed instruction
system.cpu1.commit.op_class_0::FloatMult            0      0.00%     63.46% # Class of committed instruction
system.cpu1.commit.op_class_0::FloatMultAcc            0      0.00%     63.46% # Class of committed instruction
system.cpu1.commit.op_class_0::FloatDiv             0      0.00%     63.46% # Class of committed instruction
system.cpu1.commit.op_class_0::FloatMisc            0      0.00%     63.46% # Class of committed instruction
system.cpu1.commit.op_class_0::FloatSqrt            0      0.00%     63.46% # Class of committed instruction
system.cpu1.commit.op_class_0::SimdAdd              0      0.00%     63.46% # Class of committed instruction
system.cpu1.commit.op_class_0::SimdAddAcc            0      0.00%     63.46% # Class of committed instruction
system.cpu1.commit.op_class_0::SimdAlu              0      0.00%     63.46% # Class of committed instruction
system.cpu1.commit.op_class_0::SimdCmp              0      0.00%     63.46% # Class of committed instruction
system.cpu1.commit.op_class_0::SimdCvt              0      0.00%     63.46% # Class of committed instruction
system.cpu1.commit.op_class_0::SimdMisc             0      0.00%     63.46% # Class of committed instruction
system.cpu1.commit.op_class_0::SimdMult             0      0.00%     63.46% # Class of committed instruction
system.cpu1.commit.op_class_0::SimdMultAcc            0      0.00%     63.46% # Class of committed instruction
system.cpu1.commit.op_class_0::SimdShift            0      0.00%     63.46% # Class of committed instruction
system.cpu1.commit.op_class_0::SimdShiftAcc            0      0.00%     63.46% # Class of committed instruction
system.cpu1.commit.op_class_0::SimdDiv              0      0.00%     63.46% # Class of committed instruction
system.cpu1.commit.op_class_0::SimdSqrt             0      0.00%     63.46% # Class of committed instruction
system.cpu1.commit.op_class_0::SimdFloatAdd            0      0.00%     63.46% # Class of committed instruction
system.cpu1.commit.op_class_0::SimdFloatAlu            0      0.00%     63.46% # Class of committed instruction
system.cpu1.commit.op_class_0::SimdFloatCmp            0      0.00%     63.46% # Class of committed instruction
system.cpu1.commit.op_class_0::SimdFloatCvt            0      0.00%     63.46% # Class of committed instruction
system.cpu1.commit.op_class_0::SimdFloatDiv            0      0.00%     63.46% # Class of committed instruction
system.cpu1.commit.op_class_0::SimdFloatMisc            0      0.00%     63.46% # Class of committed instruction
system.cpu1.commit.op_class_0::SimdFloatMult            0      0.00%     63.46% # Class of committed instruction
system.cpu1.commit.op_class_0::SimdFloatMultAcc            0      0.00%     63.46% # Class of committed instruction
system.cpu1.commit.op_class_0::SimdFloatSqrt            0      0.00%     63.46% # Class of committed instruction
system.cpu1.commit.op_class_0::SimdReduceAdd            0      0.00%     63.46% # Class of committed instruction
system.cpu1.commit.op_class_0::SimdReduceAlu            0      0.00%     63.46% # Class of committed instruction
system.cpu1.commit.op_class_0::SimdReduceCmp            0      0.00%     63.46% # Class of committed instruction
system.cpu1.commit.op_class_0::SimdFloatReduceAdd            0      0.00%     63.46% # Class of committed instruction
system.cpu1.commit.op_class_0::SimdFloatReduceCmp            0      0.00%     63.46% # Class of committed instruction
system.cpu1.commit.op_class_0::SimdAes              0      0.00%     63.46% # Class of committed instruction
system.cpu1.commit.op_class_0::SimdAesMix            0      0.00%     63.46% # Class of committed instruction
system.cpu1.commit.op_class_0::SimdSha1Hash            0      0.00%     63.46% # Class of committed instruction
system.cpu1.commit.op_class_0::SimdSha1Hash2            0      0.00%     63.46% # Class of committed instruction
system.cpu1.commit.op_class_0::SimdSha256Hash            0      0.00%     63.46% # Class of committed instruction
system.cpu1.commit.op_class_0::SimdSha256Hash2            0      0.00%     63.46% # Class of committed instruction
system.cpu1.commit.op_class_0::SimdShaSigma2            0      0.00%     63.46% # Class of committed instruction
system.cpu1.commit.op_class_0::SimdShaSigma3            0      0.00%     63.46% # Class of committed instruction
system.cpu1.commit.op_class_0::SimdPredAlu            0      0.00%     63.46% # Class of committed instruction
system.cpu1.commit.op_class_0::MemRead       10266415     30.85%     94.30% # Class of committed instruction
system.cpu1.commit.op_class_0::MemWrite       1895750      5.70%    100.00% # Class of committed instruction
system.cpu1.commit.op_class_0::FloatMemRead            0      0.00%    100.00% # Class of committed instruction
system.cpu1.commit.op_class_0::FloatMemWrite           12      0.00%    100.00% # Class of committed instruction
system.cpu1.commit.op_class_0::IprAccess            0      0.00%    100.00% # Class of committed instruction
system.cpu1.commit.op_class_0::InstPrefetch            0      0.00%    100.00% # Class of committed instruction
system.cpu1.commit.op_class_0::total         33280355                       # Class of committed instruction
system.cpu1.commit.refs                      12162177                       # Number of memory references committed
system.cpu1.commit.swp_count                        0                       # Number of s/w prefetches committed
system.cpu1.commit.vec_insts                        0                       # Number of committed Vector instructions.
system.cpu1.committedInsts                   32262263                       # Number of Instructions Simulated
system.cpu1.committedOps                     33280355                       # Number of Ops (including micro ops) Simulated
system.cpu1.cpi                              5.662081                       # CPI: Cycles Per Instruction
system.cpu1.cpi_total                        5.662081                       # CPI: Total CPI of All Threads
system.cpu1.decode.BlockedCycles            160393871                       # Number of cycles decode is blocked
system.cpu1.decode.BranchMispred               317305                       # Number of times decode detected a branch misprediction
system.cpu1.decode.BranchResolved             4182301                       # Number of times decode resolved a branch
system.cpu1.decode.DecodedInsts              38738088                       # Number of instructions handled by decode
system.cpu1.decode.IdleCycles                 6183112                       # Number of cycles decode is idle
system.cpu1.decode.RunCycles                 13372672                       # Number of cycles decode is running
system.cpu1.decode.SquashCycles                465611                       # Number of cycles decode is squashing
system.cpu1.decode.SquashedInsts               570067                       # Number of squashed instructions handled by decode
system.cpu1.decode.UnblockCycles              1989459                       # Number of cycles decode is unblocking
system.cpu1.dtb.accesses                            0                       # DTB accesses
system.cpu1.dtb.hits                                0                       # DTB hits
system.cpu1.dtb.misses                              0                       # DTB misses
system.cpu1.dtb.read_accesses                       0                       # DTB read accesses
system.cpu1.dtb.read_hits                           0                       # DTB read hits
system.cpu1.dtb.read_misses                         0                       # DTB read misses
system.cpu1.dtb.write_accesses                      0                       # DTB write accesses
system.cpu1.dtb.write_hits                          0                       # DTB write hits
system.cpu1.dtb.write_misses                        0                       # DTB write misses
system.cpu1.fetch.Branches                    8417144                       # Number of branches that fetch encountered
system.cpu1.fetch.CacheLines                  6181483                       # Number of cache lines fetched
system.cpu1.fetch.Cycles                    175073014                       # Number of cycles fetch has run and was not squashing or blocked
system.cpu1.fetch.IcacheSquashes               119854                       # Number of outstanding Icache misses that were squashed
system.cpu1.fetch.Insts                      39351716                       # Number of instructions fetch has processed
system.cpu1.fetch.MiscStallCycles                   1                       # Number of cycles fetch has spent waiting on interrupts, or bad addresses, or out of MSHRs
system.cpu1.fetch.SquashCycles                1561850                       # Number of cycles fetch has spent squashing
system.cpu1.fetch.branchRate                 0.046078                       # Number of branch fetches per cycle
system.cpu1.fetch.icacheStallCycles           6550785                       # Number of cycles fetch is stalled on an Icache miss
system.cpu1.fetch.predictedBranches           4581224                       # Number of branches that fetch has predicted taken
system.cpu1.fetch.rate                       0.215423                       # Number of inst fetches per cycle
system.cpu1.fetch.rateDist::samples         182404725                       # Number of instructions fetched each cycle (Total)
system.cpu1.fetch.rateDist::mean             0.221322                       # Number of instructions fetched each cycle (Total)
system.cpu1.fetch.rateDist::stdev            0.657736                       # Number of instructions fetched each cycle (Total)
system.cpu1.fetch.rateDist::underflows              0      0.00%      0.00% # Number of instructions fetched each cycle (Total)
system.cpu1.fetch.rateDist::0               157850182     86.54%     86.54% # Number of instructions fetched each cycle (Total)
system.cpu1.fetch.rateDist::1                14647781      8.03%     94.57% # Number of instructions fetched each cycle (Total)
system.cpu1.fetch.rateDist::2                 5483645      3.01%     97.58% # Number of instructions fetched each cycle (Total)
system.cpu1.fetch.rateDist::3                 3334190      1.83%     99.40% # Number of instructions fetched each cycle (Total)
system.cpu1.fetch.rateDist::4                  822549      0.45%     99.85% # Number of instructions fetched each cycle (Total)
system.cpu1.fetch.rateDist::5                  136418      0.07%     99.93% # Number of instructions fetched each cycle (Total)
system.cpu1.fetch.rateDist::6                  129731      0.07%    100.00% # Number of instructions fetched each cycle (Total)
system.cpu1.fetch.rateDist::7                       9      0.00%    100.00% # Number of instructions fetched each cycle (Total)
system.cpu1.fetch.rateDist::8                     220      0.00%    100.00% # Number of instructions fetched each cycle (Total)
system.cpu1.fetch.rateDist::overflows               0      0.00%    100.00% # Number of instructions fetched each cycle (Total)
system.cpu1.fetch.rateDist::min_value               0                       # Number of instructions fetched each cycle (Total)
system.cpu1.fetch.rateDist::max_value               8                       # Number of instructions fetched each cycle (Total)
system.cpu1.fetch.rateDist::total           182404725                       # Number of instructions fetched each cycle (Total)
system.cpu1.fp_regfile_reads                       12                       # number of floating regfile reads
system.cpu1.idleCycles                         266835                       # Total number of cycles that the CPU has spent unscheduled due to idling
system.cpu1.iew.branchMispredicts              485300                       # Number of branch mispredicts detected at execute
system.cpu1.iew.exec_branches                 7552076                       # Number of branches executed
system.cpu1.iew.exec_nop                            0                       # number of nop insts executed
system.cpu1.iew.exec_rate                    0.193020                       # Inst execution rate
system.cpu1.iew.exec_refs                    12761139                       # number of memory reference insts executed
system.cpu1.iew.exec_stores                   2943726                       # Number of stores executed
system.cpu1.iew.exec_swp                            0                       # number of swp insts executed
system.cpu1.iew.iewBlockCycles              139330421                       # Number of cycles IEW is blocking
system.cpu1.iew.iewDispLoadInsts              9908330                       # Number of dispatched load instructions
system.cpu1.iew.iewDispNonSpecInsts           1018541                       # Number of dispatched non-speculative instructions
system.cpu1.iew.iewDispSquashedInsts           810431                       # Number of squashed instructions skipped by dispatch
system.cpu1.iew.iewDispStoreInsts             2977405                       # Number of dispatched store instructions
system.cpu1.iew.iewDispatchedInsts           36588997                       # Number of instructions dispatched to IQ
system.cpu1.iew.iewExecLoadInsts              9817413                       # Number of load instructions executed
system.cpu1.iew.iewExecSquashedInsts           628258                       # Number of squashed instructions skipped in execute
system.cpu1.iew.iewExecutedInsts             35259231                       # Number of executed instructions
system.cpu1.iew.iewIQFullEvents                787324                       # Number of times the IQ has become full, causing a stall
system.cpu1.iew.iewIdleCycles                       0                       # Number of cycles IEW is idle
system.cpu1.iew.iewLSQFullEvents              1740088                       # Number of times the LSQ has become full, causing a stall
system.cpu1.iew.iewSquashCycles                465611                       # Number of cycles IEW is squashing
system.cpu1.iew.iewUnblockCycles              3731758                       # Number of cycles IEW is unblocking
system.cpu1.iew.lsq.thread0.blockedLoads            0                       # Number of blocked loads due to partial load-store forwarding
system.cpu1.iew.lsq.thread0.cacheBlocked        10765                       # Number of times an access to memory failed due to the cache being blocked
system.cpu1.iew.lsq.thread0.forwLoads          137193                       # Number of loads that had data forwarded from stores
system.cpu1.iew.lsq.thread0.ignoredResponses         4774                       # Number of memory responses ignored because the instruction is squashed
system.cpu1.iew.lsq.thread0.invAddrLoads            0                       # Number of loads ignored due to an invalid address
system.cpu1.iew.lsq.thread0.invAddrSwpfs            0                       # Number of software prefetches ignored due to an invalid address
system.cpu1.iew.lsq.thread0.memOrderViolation          104                       # Number of memory ordering violations
system.cpu1.iew.lsq.thread0.rescheduledLoads          198                       # Number of loads that were rescheduled
system.cpu1.iew.lsq.thread0.squashedLoads       659841                       # Number of loads squashed
system.cpu1.iew.lsq.thread0.squashedStores        63717                       # Number of stores squashed
system.cpu1.iew.memOrderViolationEvents           104                       # Number of memory order violations
system.cpu1.iew.predictedNotTakenIncorrect        86288                       # Number of branches that were predicted not taken incorrectly
system.cpu1.iew.predictedTakenIncorrect        399012                       # Number of branches that were predicted taken incorrectly
system.cpu1.iew.wb_consumers                 19999901                       # num instructions consuming a value
system.cpu1.iew.wb_count                     35065035                       # cumulative count of insts written-back
system.cpu1.iew.wb_fanout                    0.872307                       # average fanout of values written-back
system.cpu1.iew.wb_producers                 17446044                       # num instructions producing a value
system.cpu1.iew.wb_rate                      0.191957                       # insts written-back per cycle
system.cpu1.iew.wb_sent                      35071079                       # cumulative count of insts sent to commit
system.cpu1.int_regfile_reads                43428426                       # number of integer regfile reads
system.cpu1.int_regfile_writes               23744499                       # number of integer regfile writes
system.cpu1.ipc                              0.176613                       # IPC: Instructions Per Cycle
system.cpu1.ipc_total                        0.176613                       # IPC: Total IPC of All Threads
system.cpu1.iq.FU_type_0::No_OpClass          2036060      5.67%      5.67% # Type of FU issued
system.cpu1.iq.FU_type_0::IntAlu             21016164     58.56%     64.23% # Type of FU issued
system.cpu1.iq.FU_type_0::IntMult                  46      0.00%     64.23% # Type of FU issued
system.cpu1.iq.FU_type_0::IntDiv                   84      0.00%     64.24% # Type of FU issued
system.cpu1.iq.FU_type_0::FloatAdd                  0      0.00%     64.24% # Type of FU issued
system.cpu1.iq.FU_type_0::FloatCmp                  0      0.00%     64.24% # Type of FU issued
system.cpu1.iq.FU_type_0::FloatCvt                  0      0.00%     64.24% # Type of FU issued
system.cpu1.iq.FU_type_0::FloatMult                 0      0.00%     64.24% # Type of FU issued
system.cpu1.iq.FU_type_0::FloatMultAcc              0      0.00%     64.24% # Type of FU issued
system.cpu1.iq.FU_type_0::FloatDiv                  0      0.00%     64.24% # Type of FU issued
system.cpu1.iq.FU_type_0::FloatMisc                 0      0.00%     64.24% # Type of FU issued
system.cpu1.iq.FU_type_0::FloatSqrt                 0      0.00%     64.24% # Type of FU issued
system.cpu1.iq.FU_type_0::SimdAdd                   0      0.00%     64.24% # Type of FU issued
system.cpu1.iq.FU_type_0::SimdAddAcc                0      0.00%     64.24% # Type of FU issued
system.cpu1.iq.FU_type_0::SimdAlu                   0      0.00%     64.24% # Type of FU issued
system.cpu1.iq.FU_type_0::SimdCmp                   0      0.00%     64.24% # Type of FU issued
system.cpu1.iq.FU_type_0::SimdCvt                   0      0.00%     64.24% # Type of FU issued
system.cpu1.iq.FU_type_0::SimdMisc                  0      0.00%     64.24% # Type of FU issued
system.cpu1.iq.FU_type_0::SimdMult                  0      0.00%     64.24% # Type of FU issued
system.cpu1.iq.FU_type_0::SimdMultAcc               0      0.00%     64.24% # Type of FU issued
system.cpu1.iq.FU_type_0::SimdShift                 0      0.00%     64.24% # Type of FU issued
system.cpu1.iq.FU_type_0::SimdShiftAcc              0      0.00%     64.24% # Type of FU issued
system.cpu1.iq.FU_type_0::SimdDiv                   0      0.00%     64.24% # Type of FU issued
system.cpu1.iq.FU_type_0::SimdSqrt                  0      0.00%     64.24% # Type of FU issued
system.cpu1.iq.FU_type_0::SimdFloatAdd              0      0.00%     64.24% # Type of FU issued
system.cpu1.iq.FU_type_0::SimdFloatAlu              0      0.00%     64.24% # Type of FU issued
system.cpu1.iq.FU_type_0::SimdFloatCmp              0      0.00%     64.24% # Type of FU issued
system.cpu1.iq.FU_type_0::SimdFloatCvt              0      0.00%     64.24% # Type of FU issued
system.cpu1.iq.FU_type_0::SimdFloatDiv              0      0.00%     64.24% # Type of FU issued
system.cpu1.iq.FU_type_0::SimdFloatMisc             0      0.00%     64.24% # Type of FU issued
system.cpu1.iq.FU_type_0::SimdFloatMult             0      0.00%     64.24% # Type of FU issued
system.cpu1.iq.FU_type_0::SimdFloatMultAcc            0      0.00%     64.24% # Type of FU issued
system.cpu1.iq.FU_type_0::SimdFloatSqrt             0      0.00%     64.24% # Type of FU issued
system.cpu1.iq.FU_type_0::SimdReduceAdd             0      0.00%     64.24% # Type of FU issued
system.cpu1.iq.FU_type_0::SimdReduceAlu             0      0.00%     64.24% # Type of FU issued
system.cpu1.iq.FU_type_0::SimdReduceCmp             0      0.00%     64.24% # Type of FU issued
system.cpu1.iq.FU_type_0::SimdFloatReduceAdd            0      0.00%     64.24% # Type of FU issued
system.cpu1.iq.FU_type_0::SimdFloatReduceCmp            0      0.00%     64.24% # Type of FU issued
system.cpu1.iq.FU_type_0::SimdAes                   0      0.00%     64.24% # Type of FU issued
system.cpu1.iq.FU_type_0::SimdAesMix                0      0.00%     64.24% # Type of FU issued
system.cpu1.iq.FU_type_0::SimdSha1Hash              0      0.00%     64.24% # Type of FU issued
system.cpu1.iq.FU_type_0::SimdSha1Hash2             0      0.00%     64.24% # Type of FU issued
system.cpu1.iq.FU_type_0::SimdSha256Hash            0      0.00%     64.24% # Type of FU issued
system.cpu1.iq.FU_type_0::SimdSha256Hash2            0      0.00%     64.24% # Type of FU issued
system.cpu1.iq.FU_type_0::SimdShaSigma2             0      0.00%     64.24% # Type of FU issued
system.cpu1.iq.FU_type_0::SimdShaSigma3             0      0.00%     64.24% # Type of FU issued
system.cpu1.iq.FU_type_0::SimdPredAlu               0      0.00%     64.24% # Type of FU issued
system.cpu1.iq.FU_type_0::MemRead            10901873     30.38%     94.61% # Type of FU issued
system.cpu1.iq.FU_type_0::MemWrite            1933250      5.39%    100.00% # Type of FU issued
system.cpu1.iq.FU_type_0::FloatMemRead              0      0.00%    100.00% # Type of FU issued
system.cpu1.iq.FU_type_0::FloatMemWrite            12      0.00%    100.00% # Type of FU issued
system.cpu1.iq.FU_type_0::IprAccess                 0      0.00%    100.00% # Type of FU issued
system.cpu1.iq.FU_type_0::InstPrefetch              0      0.00%    100.00% # Type of FU issued
system.cpu1.iq.FU_type_0::total              35887489                       # Type of FU issued
system.cpu1.iq.fp_alu_accesses                     16                       # Number of floating point alu accesses
system.cpu1.iq.fp_inst_queue_reads                 28                       # Number of floating instruction queue reads
system.cpu1.iq.fp_inst_queue_wakeup_accesses           12                       # Number of floating instruction queue wakeup accesses
system.cpu1.iq.fp_inst_queue_writes                12                       # Number of floating instruction queue writes
system.cpu1.iq.fu_busy_cnt                    1000060                       # FU busy when requested
system.cpu1.iq.fu_busy_rate                  0.027867                       # FU busy rate (busy events/executed inst)
system.cpu1.iq.fu_full::No_OpClass                  0      0.00%      0.00% # attempts to use FU when none available
system.cpu1.iq.fu_full::IntAlu                 133043     13.30%     13.30% # attempts to use FU when none available
system.cpu1.iq.fu_full::IntMult                     0      0.00%     13.30% # attempts to use FU when none available
system.cpu1.iq.fu_full::IntDiv                      0      0.00%     13.30% # attempts to use FU when none available
system.cpu1.iq.fu_full::FloatAdd                    0      0.00%     13.30% # attempts to use FU when none available
system.cpu1.iq.fu_full::FloatCmp                    0      0.00%     13.30% # attempts to use FU when none available
system.cpu1.iq.fu_full::FloatCvt                    0      0.00%     13.30% # attempts to use FU when none available
system.cpu1.iq.fu_full::FloatMult                   0      0.00%     13.30% # attempts to use FU when none available
system.cpu1.iq.fu_full::FloatMultAcc                0      0.00%     13.30% # attempts to use FU when none available
system.cpu1.iq.fu_full::FloatDiv                    0      0.00%     13.30% # attempts to use FU when none available
system.cpu1.iq.fu_full::FloatMisc                   0      0.00%     13.30% # attempts to use FU when none available
system.cpu1.iq.fu_full::FloatSqrt                   0      0.00%     13.30% # attempts to use FU when none available
system.cpu1.iq.fu_full::SimdAdd                     0      0.00%     13.30% # attempts to use FU when none available
system.cpu1.iq.fu_full::SimdAddAcc                  0      0.00%     13.30% # attempts to use FU when none available
system.cpu1.iq.fu_full::SimdAlu                     0      0.00%     13.30% # attempts to use FU when none available
system.cpu1.iq.fu_full::SimdCmp                     0      0.00%     13.30% # attempts to use FU when none available
system.cpu1.iq.fu_full::SimdCvt                     0      0.00%     13.30% # attempts to use FU when none available
system.cpu1.iq.fu_full::SimdMisc                    0      0.00%     13.30% # attempts to use FU when none available
system.cpu1.iq.fu_full::SimdMult                    0      0.00%     13.30% # attempts to use FU when none available
system.cpu1.iq.fu_full::SimdMultAcc                 0      0.00%     13.30% # attempts to use FU when none available
system.cpu1.iq.fu_full::SimdShift                   0      0.00%     13.30% # attempts to use FU when none available
system.cpu1.iq.fu_full::SimdShiftAcc                0      0.00%     13.30% # attempts to use FU when none available
system.cpu1.iq.fu_full::SimdDiv                     0      0.00%     13.30% # attempts to use FU when none available
system.cpu1.iq.fu_full::SimdSqrt                    0      0.00%     13.30% # attempts to use FU when none available
system.cpu1.iq.fu_full::SimdFloatAdd                0      0.00%     13.30% # attempts to use FU when none available
system.cpu1.iq.fu_full::SimdFloatAlu                0      0.00%     13.30% # attempts to use FU when none available
system.cpu1.iq.fu_full::SimdFloatCmp                0      0.00%     13.30% # attempts to use FU when none available
system.cpu1.iq.fu_full::SimdFloatCvt                0      0.00%     13.30% # attempts to use FU when none available
system.cpu1.iq.fu_full::SimdFloatDiv                0      0.00%     13.30% # attempts to use FU when none available
system.cpu1.iq.fu_full::SimdFloatMisc               0      0.00%     13.30% # attempts to use FU when none available
system.cpu1.iq.fu_full::SimdFloatMult               0      0.00%     13.30% # attempts to use FU when none available
system.cpu1.iq.fu_full::SimdFloatMultAcc            0      0.00%     13.30% # attempts to use FU when none available
system.cpu1.iq.fu_full::SimdFloatSqrt               0      0.00%     13.30% # attempts to use FU when none available
system.cpu1.iq.fu_full::SimdReduceAdd               0      0.00%     13.30% # attempts to use FU when none available
system.cpu1.iq.fu_full::SimdReduceAlu               0      0.00%     13.30% # attempts to use FU when none available
system.cpu1.iq.fu_full::SimdReduceCmp               0      0.00%     13.30% # attempts to use FU when none available
system.cpu1.iq.fu_full::SimdFloatReduceAdd            0      0.00%     13.30% # attempts to use FU when none available
system.cpu1.iq.fu_full::SimdFloatReduceCmp            0      0.00%     13.30% # attempts to use FU when none available
system.cpu1.iq.fu_full::SimdAes                     0      0.00%     13.30% # attempts to use FU when none available
system.cpu1.iq.fu_full::SimdAesMix                  0      0.00%     13.30% # attempts to use FU when none available
system.cpu1.iq.fu_full::SimdSha1Hash                0      0.00%     13.30% # attempts to use FU when none available
system.cpu1.iq.fu_full::SimdSha1Hash2               0      0.00%     13.30% # attempts to use FU when none available
system.cpu1.iq.fu_full::SimdSha256Hash              0      0.00%     13.30% # attempts to use FU when none available
system.cpu1.iq.fu_full::SimdSha256Hash2             0      0.00%     13.30% # attempts to use FU when none available
system.cpu1.iq.fu_full::SimdShaSigma2               0      0.00%     13.30% # attempts to use FU when none available
system.cpu1.iq.fu_full::SimdShaSigma3               0      0.00%     13.30% # attempts to use FU when none available
system.cpu1.iq.fu_full::SimdPredAlu                 0      0.00%     13.30% # attempts to use FU when none available
system.cpu1.iq.fu_full::MemRead                796464     79.64%     92.95% # attempts to use FU when none available
system.cpu1.iq.fu_full::MemWrite                70549      7.05%    100.00% # attempts to use FU when none available
[...]
system.cpu1.dcache.WriteReq_hits::.cpu1.data      1124703                       # number of WriteReq hits
system.cpu1.dcache.WriteReq_hits::total       1124703                       # number of WriteReq hits
system.cpu1.dcache.WriteReq_misses::.cpu1.data       249459                       # number of WriteReq misses
system.cpu1.dcache.WriteReq_misses::total       249459                       # number of WriteReq misses
system.cpu1.dcache.WriteReq_miss_latency::.cpu1.data  12555023528                       # number of WriteReq miss cycles
system.cpu1.dcache.WriteReq_miss_latency::total  12555023528                       # number of WriteReq miss cycles
system.cpu1.dcache.WriteReq_accesses::.cpu1.data      1374162                       # number of WriteReq accesses(hits+misses)
system.cpu1.dcache.WriteReq_accesses::total      1374162                       # number of WriteReq accesses(hits+misses)
system.cpu1.dcache.WriteReq_miss_rate::.cpu1.data     0.181535                       # miss rate for WriteReq accesses
system.cpu1.dcache.WriteReq_miss_rate::total     0.181535                       # miss rate for WriteReq accesses
system.cpu1.dcache.WriteReq_avg_miss_latency::.cpu1.data 50329.006081                       # average WriteReq miss latency
system.cpu1.dcache.WriteReq_avg_miss_latency::total 50329.006081                       # average WriteReq miss latency
system.cpu1.dcache.WriteReq_mshr_hits::.cpu1.data       182668                       # number of WriteReq MSHR hits
system.cpu1.dcache.WriteReq_mshr_hits::total       182668                       # number of WriteReq MSHR hits
system.cpu1.dcache.WriteReq_mshr_misses::.cpu1.data        66791                       # number of WriteReq MSHR misses
system.cpu1.dcache.WriteReq_mshr_misses::total        66791                       # number of WriteReq MSHR misses
system.cpu1.dcache.WriteReq_mshr_miss_latency::.cpu1.data   2675414742                       # number of WriteReq MSHR miss cycles
system.cpu1.dcache.WriteReq_mshr_miss_latency::total   2675414742                       # number of WriteReq MSHR miss cycles
system.cpu1.dcache.WriteReq_mshr_miss_rate::.cpu1.data     0.048605                       # mshr miss rate for WriteReq accesses
system.cpu1.dcache.WriteReq_mshr_miss_rate::total     0.048605                       # mshr miss rate for WriteReq accesses
system.cpu1.dcache.WriteReq_avg_mshr_miss_latency::.cpu1.data 40056.515728                       # average WriteReq mshr miss latency
system.cpu1.dcache.WriteReq_avg_mshr_miss_latency::total 40056.515728                       # average WriteReq mshr miss latency
system.cpu1.dcache.LoadLockedReq_hits::.cpu1.data        47345                       # number of LoadLockedReq hits
system.cpu1.dcache.LoadLockedReq_hits::total        47345                       # number of LoadLockedReq hits
system.cpu1.dcache.LoadLockedReq_misses::.cpu1.data          872                       # number of LoadLockedReq misses
system.cpu1.dcache.LoadLockedReq_misses::total          872                       # number of LoadLockedReq misses
system.cpu1.dcache.LoadLockedReq_miss_latency::.cpu1.data     40021500                       # number of LoadLockedReq miss cycles
system.cpu1.dcache.LoadLockedReq_miss_latency::total     40021500                       # number of LoadLockedReq miss cycles
system.cpu1.dcache.LoadLockedReq_accesses::.cpu1.data        48217                       # number of LoadLockedReq accesses(hits+misses)
system.cpu1.dcache.LoadLockedReq_accesses::total        48217                       # number of LoadLockedReq accesses(hits+misses)
system.cpu1.dcache.LoadLockedReq_miss_rate::.cpu1.data     0.018085                       # miss rate for LoadLockedReq accesses
system.cpu1.dcache.LoadLockedReq_miss_rate::total     0.018085                       # miss rate for LoadLockedReq accesses
system.cpu1.dcache.LoadLockedReq_avg_miss_latency::.cpu1.data 45896.215596                       # average LoadLockedReq miss latency
system.cpu1.dcache.LoadLockedReq_avg_miss_latency::total 45896.215596                       # average LoadLockedReq miss latency
system.cpu1.dcache.LoadLockedReq_mshr_hits::.cpu1.data          199                       # number of LoadLockedReq MSHR hits
system.cpu1.dcache.LoadLockedReq_mshr_hits::total          199                       # number of LoadLockedReq MSHR hits
system.cpu1.dcache.LoadLockedReq_mshr_misses::.cpu1.data          673                       # number of LoadLockedReq MSHR misses
system.cpu1.dcache.LoadLockedReq_mshr_misses::total          673                       # number of LoadLockedReq MSHR misses
system.cpu1.dcache.LoadLockedReq_mshr_miss_latency::.cpu1.data     24033000                       # number of LoadLockedReq MSHR miss cycles
system.cpu1.dcache.LoadLockedReq_mshr_miss_latency::total     24033000                       # number of LoadLockedReq MSHR miss cycles
system.cpu1.dcache.LoadLockedReq_mshr_miss_rate::.cpu1.data     0.013958                       # mshr miss rate for LoadLockedReq accesses
system.cpu1.dcache.LoadLockedReq_mshr_miss_rate::total     0.013958                       # mshr miss rate for LoadLockedReq accesses
system.cpu1.dcache.LoadLockedReq_avg_mshr_miss_latency::.cpu1.data 35710.252600                       # average LoadLockedReq mshr miss latency
system.cpu1.dcache.LoadLockedReq_avg_mshr_miss_latency::total 35710.252600                       # average LoadLockedReq mshr miss latency
system.cpu1.dcache.StoreCondReq_hits::.cpu1.data        42739                       # number of StoreCondReq hits
system.cpu1.dcache.StoreCondReq_hits::total        42739                       # number of StoreCondReq hits
system.cpu1.dcache.StoreCondReq_misses::.cpu1.data         5050                       # number of StoreCondReq misses
system.cpu1.dcache.StoreCondReq_misses::total         5050                       # number of StoreCondReq misses
system.cpu1.dcache.StoreCondReq_miss_latency::.cpu1.data     30746500                       # number of StoreCondReq miss cycles
system.cpu1.dcache.StoreCondReq_miss_latency::total     30746500                       # number of StoreCondReq miss cycles
system.cpu1.dcache.StoreCondReq_accesses::.cpu1.data        47789                       # number of StoreCondReq accesses(hits+misses)
system.cpu1.dcache.StoreCondReq_accesses::total        47789                       # number of StoreCondReq accesses(hits+misses)
system.cpu1.dcache.StoreCondReq_miss_rate::.cpu1.data     0.105673                       # miss rate for StoreCondReq accesses
system.cpu1.dcache.StoreCondReq_miss_rate::total     0.105673                       # miss rate for StoreCondReq accesses
system.cpu1.dcache.StoreCondReq_avg_miss_latency::.cpu1.data  6088.415842                       # average StoreCondReq miss latency
system.cpu1.dcache.StoreCondReq_avg_miss_latency::total  6088.415842                       # average StoreCondReq miss latency
system.cpu1.dcache.StoreCondReq_mshr_misses::.cpu1.data         4970                       # number of StoreCondReq MSHR misses
system.cpu1.dcache.StoreCondReq_mshr_misses::total         4970                       # number of StoreCondReq MSHR misses
system.cpu1.dcache.StoreCondReq_mshr_miss_latency::.cpu1.data     25811500                       # number of StoreCondReq MSHR miss cycles
system.cpu1.dcache.StoreCondReq_mshr_miss_latency::total     25811500                       # number of StoreCondReq MSHR miss cycles
system.cpu1.dcache.StoreCondReq_mshr_miss_rate::.cpu1.data     0.103999                       # mshr miss rate for StoreCondReq accesses
system.cpu1.dcache.StoreCondReq_mshr_miss_rate::total     0.103999                       # mshr miss rate for StoreCondReq accesses
system.cpu1.dcache.StoreCondReq_avg_mshr_miss_latency::.cpu1.data  5193.460765                       # average StoreCondReq mshr miss latency
system.cpu1.dcache.StoreCondReq_avg_mshr_miss_latency::total  5193.460765                       # average StoreCondReq mshr miss latency
system.cpu1.dcache.StoreCondFailReq_miss_latency::.cpu1.data       496500                       # number of StoreCondFailReq miss cycles
system.cpu1.dcache.StoreCondFailReq_miss_latency::total       496500                       # number of StoreCondFailReq miss cycles
system.cpu1.dcache.StoreCondFailReq_avg_miss_latency::.cpu1.data          inf                       # average StoreCondFailReq miss latency
system.cpu1.dcache.StoreCondFailReq_avg_miss_latency::total          inf                       # average StoreCondFailReq miss latency
system.cpu1.dcache.StoreCondFailReq_mshr_miss_latency::.cpu1.data       461500                       # number of StoreCondFailReq MSHR miss cycles
system.cpu1.dcache.StoreCondFailReq_mshr_miss_latency::total       461500                       # number of StoreCondFailReq MSHR miss cycles
system.cpu1.dcache.StoreCondFailReq_avg_mshr_miss_latency::.cpu1.data          inf                       # average StoreCondFailReq mshr miss latency
system.cpu1.dcache.StoreCondFailReq_avg_mshr_miss_latency::total          inf                       # average StoreCondFailReq mshr miss latency
system.cpu1.dcache.SwapReq_hits::.cpu1.data         1530                       # number of SwapReq hits
system.cpu1.dcache.SwapReq_hits::total           1530                       # number of SwapReq hits
system.cpu1.dcache.SwapReq_misses::.cpu1.data         2867                       # number of SwapReq misses
system.cpu1.dcache.SwapReq_misses::total         2867                       # number of SwapReq misses
system.cpu1.dcache.SwapReq_miss_latency::.cpu1.data     50499000                       # number of SwapReq miss cycles
system.cpu1.dcache.SwapReq_miss_latency::total     50499000                       # number of SwapReq miss cycles
system.cpu1.dcache.SwapReq_accesses::.cpu1.data         4397                       # number of SwapReq accesses(hits+misses)
system.cpu1.dcache.SwapReq_accesses::total         4397                       # number of SwapReq accesses(hits+misses)
system.cpu1.dcache.SwapReq_miss_rate::.cpu1.data     0.652035                       # miss rate for SwapReq accesses
system.cpu1.dcache.SwapReq_miss_rate::total     0.652035                       # miss rate for SwapReq accesses
system.cpu1.dcache.SwapReq_avg_miss_latency::.cpu1.data 17613.882107                       # average SwapReq miss latency
system.cpu1.dcache.SwapReq_avg_miss_latency::total 17613.882107                       # average SwapReq miss latency
system.cpu1.dcache.SwapReq_mshr_misses::.cpu1.data         2867                       # number of SwapReq MSHR misses
system.cpu1.dcache.SwapReq_mshr_misses::total         2867                       # number of SwapReq MSHR misses
system.cpu1.dcache.SwapReq_mshr_miss_latency::.cpu1.data     47632000                       # number of SwapReq MSHR miss cycles
system.cpu1.dcache.SwapReq_mshr_miss_latency::total     47632000                       # number of SwapReq MSHR miss cycles
system.cpu1.dcache.SwapReq_mshr_miss_rate::.cpu1.data     0.652035                       # mshr miss rate for SwapReq accesses
system.cpu1.dcache.SwapReq_mshr_miss_rate::total     0.652035                       # mshr miss rate for SwapReq accesses
system.cpu1.dcache.SwapReq_avg_mshr_miss_latency::.cpu1.data 16613.882107                       # average SwapReq mshr miss latency
system.cpu1.dcache.SwapReq_avg_mshr_miss_latency::total 16613.882107                       # average SwapReq mshr miss latency
system.cpu1.dcache.tags.pwrStateResidencyTicks::UNDEFINED  62281255500                       # Cumulative time (in ticks) in various power states
system.cpu1.dcache.tags.tagsinuse           31.390247                       # Cycle average of tags in use
system.cpu1.dcache.tags.total_refs           18339771                       # Total number of references to valid blocks.
system.cpu1.dcache.tags.sampled_refs          1240238                       # Sample count of references to valid blocks.
system.cpu1.dcache.tags.avg_refs            14.787300                       # Average number of references to valid blocks.
system.cpu1.dcache.tags.warmup_cycle                0                       # Cycle when the warmup percentage was hit.
system.cpu1.dcache.tags.occ_blocks::.cpu1.data    31.390247                       # Average occupied blocks per requestor
system.cpu1.dcache.tags.occ_percent::.cpu1.data     0.980945                       # Average percentage of cache occupancy
system.cpu1.dcache.tags.occ_percent::total     0.980945                       # Average percentage of cache occupancy
system.cpu1.dcache.tags.occ_task_id_blocks::1024           28                       # Occupied blocks per task id
system.cpu1.dcache.tags.age_task_id_blocks_1024::1           28                       # Occupied blocks per task id
system.cpu1.dcache.tags.occ_task_id_percent::1024     0.875000                       # Percentage of cache occupancy per task id
system.cpu1.dcache.tags.tag_accesses         44869475                       # Number of tag accesses
system.cpu1.dcache.tags.data_accesses        44869475                       # Number of data accesses
system.cpu_clk_domain.clock                       500                       # Clock period in ticks
system.tol2bus.pwrStateResidencyTicks::UNDEFINED  62281255500                       # Cumulative time (in ticks) in various power states
system.tol2bus.trans_dist::ReadResp           2569882                       # Transaction distribution
system.tol2bus.trans_dist::WritebackDirty       810085                       # Transaction distribution
system.tol2bus.trans_dist::WritebackClean      2226433                       # Transaction distribution
system.tol2bus.trans_dist::CleanEvict         4540838                       # Transaction distribution
system.tol2bus.trans_dist::HardPFReq          2821553                       # Transaction distribution
system.tol2bus.trans_dist::HardPFResp               2                       # Transaction distribution
system.tol2bus.trans_dist::UpgradeReq           25023                       # Transaction distribution
system.tol2bus.trans_dist::SCUpgradeReq         10404                       # Transaction distribution
system.tol2bus.trans_dist::UpgradeResp          35427                       # Transaction distribution
system.tol2bus.trans_dist::SCUpgradeFailReq           72                       # Transaction distribution
system.tol2bus.trans_dist::UpgradeFailResp           72                       # Transaction distribution
system.tol2bus.trans_dist::ReadExReq           140942                       # Transaction distribution
system.tol2bus.trans_dist::ReadExResp          140942                       # Transaction distribution
system.tol2bus.trans_dist::ReadCleanReq        131448                       # Transaction distribution
system.tol2bus.trans_dist::ReadSharedReq      2438434                       # Transaction distribution
system.tol2bus.trans_dist::InvalidateReq          497                       # Transaction distribution
system.tol2bus.trans_dist::InvalidateResp          497                       # Transaction distribution
system.tol2bus.pkt_count_system.cpu0.icache.mem_side::system.l2.cpu_side       328754                       # Packet count per connected master and slave (bytes)
system.tol2bus.pkt_count_system.cpu0.dcache.mem_side::system.l2.cpu_side      3997387                       # Packet count per connected master and slave (bytes)
system.tol2bus.pkt_count_system.cpu1.icache.mem_side::system.l2.cpu_side        65526                       # Packet count per connected master and slave (bytes)
system.tol2bus.pkt_count_system.cpu1.dcache.mem_side::system.l2.cpu_side      3697579                       # Packet count per connected master and slave (bytes)
system.tol2bus.pkt_count::total               8089246                       # Packet count per connected master and slave (bytes)
system.tol2bus.pkt_size_system.cpu0.icache.mem_side::system.l2.cpu_side     14025472                       # Cumulative packet size per connected master and slave (bytes)
system.tol2bus.pkt_size_system.cpu0.dcache.mem_side::system.l2.cpu_side    168699264                       # Cumulative packet size per connected master and slave (bytes)
system.tol2bus.pkt_size_system.cpu1.icache.mem_side::system.l2.cpu_side      2795776                       # Cumulative packet size per connected master and slave (bytes)
system.tol2bus.pkt_size_system.cpu1.dcache.mem_side::system.l2.cpu_side    155941632                       # Cumulative packet size per connected master and slave (bytes)
system.tol2bus.pkt_size::total              341462144                       # Cumulative packet size per connected master and slave (bytes)
system.tol2bus.snoops                         7803307                       # Total snoops (count)
system.tol2bus.snoopTraffic                  26372608                       # Total snoop traffic (bytes)
system.tol2bus.snoop_fanout::samples         10478080                       # Request fanout histogram
system.tol2bus.snoop_fanout::mean            0.234286                       # Request fanout histogram
system.tol2bus.snoop_fanout::stdev           0.454801                       # Request fanout histogram
system.tol2bus.snoop_fanout::underflows             0      0.00%      0.00% # Request fanout histogram
system.tol2bus.snoop_fanout::0                8166993     77.94%     77.94% # Request fanout histogram
system.tol2bus.snoop_fanout::1                2167323     20.68%     98.63% # Request fanout histogram
system.tol2bus.snoop_fanout::2                 143747      1.37%    100.00% # Request fanout histogram
system.tol2bus.snoop_fanout::3                     17      0.00%    100.00% # Request fanout histogram
system.tol2bus.snoop_fanout::4                      0      0.00%    100.00% # Request fanout histogram
system.tol2bus.snoop_fanout::5                      0      0.00%    100.00% # Request fanout histogram
system.tol2bus.snoop_fanout::6                      0      0.00%    100.00% # Request fanout histogram
system.tol2bus.snoop_fanout::7                      0      0.00%    100.00% # Request fanout histogram
system.tol2bus.snoop_fanout::8                      0      0.00%    100.00% # Request fanout histogram
system.tol2bus.snoop_fanout::overflows              0      0.00%    100.00% # Request fanout histogram
system.tol2bus.snoop_fanout::min_value              0                       # Request fanout histogram
system.tol2bus.snoop_fanout::max_value              3                       # Request fanout histogram
system.tol2bus.snoop_fanout::total           10478080                       # Request fanout histogram
system.tol2bus.reqLayer0.occupancy         5376981737                       # Layer occupancy (ticks)
system.tol2bus.reqLayer0.utilization              8.6                       # Layer utilization (%)
system.tol2bus.respLayer1.occupancy        2022128561                       # Layer occupancy (ticks)
system.tol2bus.respLayer1.utilization             3.2                       # Layer utilization (%)
system.tol2bus.respLayer0.occupancy         164932950                       # Layer occupancy (ticks)
system.tol2bus.respLayer0.utilization             0.3                       # Layer utilization (%)
system.tol2bus.respLayer3.occupancy        1872772835                       # Layer occupancy (ticks)
system.tol2bus.respLayer3.utilization             3.0                       # Layer utilization (%)
system.tol2bus.respLayer2.occupancy          33014496                       # Layer occupancy (ticks)
system.tol2bus.respLayer2.utilization             0.1                       # Layer utilization (%)
system.tol2bus.snoopLayer0.occupancy             3000                       # Layer occupancy (ticks)
system.tol2bus.snoopLayer0.utilization            0.0                       # Layer utilization (%)

---------- End Simulation Statistics   ----------
