Redirecting stdout to /vol1/msoyturk/gem5/results/sssp/slashdot.el/prefetch_SignaturePathPrefetcher_BIPRP/output.txt
Redirecting stderr to /vol1/msoyturk/gem5/results/sssp/slashdot.el/prefetch_SignaturePathPrefetcher_BIPRP/error.txt
gem5 Simulator System.  http://gem5.org
gem5 is copyrighted software; use the --copyright option for details.

gem5 compiled Apr 26 2020 13:32:47
gem5 started May  2 2020 05:14:52
gem5 executing on draco, pid 954
command line: /vol1/msoyturk/gem5/build/RISCV/gem5.fast -re --outdir=/vol1/msoyturk/gem5/results/sssp/slashdot.el/prefetch_SignaturePathPrefetcher_BIPRP --stdout-file=output.txt --stderr-file=error.txt /vol1/msoyturk/gem5/configs/example/my_se.py -c /vol1/msoyturk/gem5/gapbs/sssp -o '-f /vol1/msoyturk/gem5/gapbs/test/graphs/slashdot.el' --caches --l1d_size=2kB --l1i_size=2kB --cpu-type=DerivO3CPU -n 4 --mem-size=512MB --l2cache --l2_size=4kB --l2-hwp-type=SignaturePathPrefetcher --l2-replacement-policy=BIPRP --l1i_mshrs=4 --l1d_mshrs=4 --l2_mshrs=20 --l1i_write_buffers=8 --l1d_write_buffers=8 --l2_write_buffers=8

info: Standard input is not a terminal, disabling listeners.
Warning: l2-hwp-type is set ( SignaturePathPrefetcher ), but the current l2 has a default Hardware Prefetcher of type <class 'm5.params.NullSimObject'> , using the specified by the flag option.
Global frequency set at 1000000000000 ticks per second
**** REAL SIMULATION ****
Read Time:           0.97473
Build Time:          0.20552
Graph has 77360 nodes and 828161 directed edges for degree: 10
    0          1     0.03261
   12          1     0.10913
   15          1     0.06386
   16          1     0.01635
   20          2     1.16993
   21         13     0.33627
   22          9     0.16581
   23         15     0.26990
   24         15     0.80284
   25         40     0.52966
   26         42     0.94885
   27         60     0.96698
   28         79     0.81613
   29         97     1.00099
   30        131     1.53549
   31        174     1.39431
   32        217     1.02558
   33        306     1.28532
   34        386     1.66270
   35        415     1.42150
   36        552     1.42643
   37        634     1.54344
   38        674     1.36669
   39        771     1.34245
   40        791     1.08776
   41        832     1.12045
   42        891     0.90667
   43        906     0.86234
   44        910     0.67792
   45        884     0.68776
   46        949     0.60611
   47        924     0.57787
   48        902     0.56080
   49        942     0.51222
   50        966     0.48248
   51        962     0.46614
   52        913     0.43128
   53        962     0.38270
   54        924     0.35350
   55        854     0.30082
   56        895     0.33396
   57        912     0.29742
   58        875     0.29152
   59        861     0.24518
   60        835     0.24292
   61        823     0.21962
   62        874     0.22216
   63        833     0.21154
   64        851     0.21251
   65        818     0.20632
   66        821     0.17258
   67        834     0.19668
   68        772     0.17924
   69        779     0.15398
   70        867     0.18927
   71        795     0.15565
   72        755     0.13920
   73        795     0.16578
   74        763     0.14041
   75        721     0.14690
   76        706     0.13395
   77        698     0.12682
   78        743     0.14693
   79        728     0.13532
   80        745     0.13759
   81        680     0.11188
   82        685     0.10369
   83        667     0.10989
   84        677     0.10893
   85        716     0.11258
   86        669     0.09418
   87        649     0.10144
   88        655     0.09283
   89        669     0.09878
   90        664     0.08730
   91        673     0.11145
   92        619     0.08474
   93        598     0.08356
   94        613     0.08593
   95        620     0.08863
   96        635     0.09509
   97        595     0.08016
   98        571     0.08984
   99        611     0.09374
  100        552     0.07211
  101        590     0.08516
  102        589     0.08543
  103        577     0.08713
  104        595     0.08221
  105        601     0.07378
  106        546     0.08253
  107        553     0.06895
  108        573     0.07779
  109        580     0.07494
  110        575     0.06676
  111        548     0.07285
  112        510     0.07287
  113        565     0.06752
  114        534     0.06349
  115        535     0.05966
  116        538     0.06601
  117        542     0.07101
  118        573     0.06454
  119        498     0.07295
  120        550     0.06341
  121        499     0.05514
  122        533     0.07786
  123        536     0.05944
  124        495     0.07754
  125        503     0.06838
  126        511     0.06025
  127        510     0.05470
  128        510     0.05762
  129        483     0.04835
  130        505     0.06525
  131        518     0.06010
  132        528     0.06133
  133        529     0.06142
  134        517     0.06851
  135        520     0.05890
  136        469     0.04658
  137        511     0.05547
  138        503     0.05952
  139        492     0.06150
  140        497     0.06615
  141        476     0.04736
  142        500     0.04662
  143        452     0.05641
  144        463     0.06082
  145        477     0.05159
  146        415     0.05686
  147        496     0.05120
  148        464     0.04892
  149        456     0.05146
  150        474     0.05765
  151        452     0.05124
  152        448     0.05274
  153        446     0.05017
  154        474     0.04601
  155        432     0.04566
  156        473     0.04407
  157        468     0.04859
  158        466     0.04910
  159        434     0.04499
  160        473     0.05577
  161        437     0.04563
  162        433     0.04461
  163        440     0.06671
  164        404     0.04504
  165        430     0.04441
  166        417     0.05293
  167        443     0.05214
  168        404     0.03864
  169        407     0.05021
  170        424     0.04446
  171        427     0.05006
  172        413     0.03970
  173        429     0.03991
  174        407     0.03803
  175        416     0.04162
  176        387     0.04089
  177        411     0.03672
  178        392     0.04333
  179        396     0.04062
  180        403     0.03830
  181        404     0.04388
  182        419     0.04692
  183        410     0.03716
  184        415     0.04165
  185        396     0.04014
  186        426     0.05384
  187        408     0.04123
  188        369     0.03753
  189        372     0.03866
  190        375     0.03691
  191        428     0.05766
  192        381     0.04459
  193        365     0.04211
  194        409     0.03733
  195        390     0.03664
  196        373     0.03812
  197        400     0.04467
  198        382     0.04877
  199        405     0.03884
  200        386     0.04162
  201        376     0.04139
  202        372     0.03818
  203        388     0.04476
  204        366     0.03841
  205        386     0.04393
  206        342     0.03509
  207        382     0.04781
  208        381     0.03857
  209        361     0.03709
  210        382     0.03418
  211        383     0.04375
  212        386     0.04322
  213        371     0.03515
  214        382     0.03738
  215        350     0.02977
  216        355     0.03572
  217        368     0.03254
  218        398     0.03753
  219        370     0.04364
  220        362     0.04434
  221        337     0.03533
  222        307     0.03489
  223        348     0.03277
  224        316     0.03392
  225        385     0.03891
  226        367     0.03485
  227        362     0.03770
  228        364     0.03439
  229        352     0.03416
  230        343     0.03670
  231        340     0.03011
  232        333     0.03168
  233        346     0.03644
  234        341     0.03571
  235        328     0.02728
  236        317     0.03254
  237        328     0.03138
  238        342     0.03254
  239        350     0.03282
  240        329     0.02842
  241        314     0.03152
  242        322     0.03055
  243        333     0.03542
  244        391     0.03553
  245        345     0.02988
  246        307     0.02937
  247        313     0.03512
  248        316     0.03520
  249        337     0.03167
  250        341     0.03758
  251        311     0.03742
  252        367     0.03480
  253        346     0.04286
  254        350     0.03547
  255        325     0.03834
  256        342     0.03712
  257        319     0.03779
  258        344     0.03315
  259        306     0.03460
  260        349     0.03319
  261        360     0.03538
  262        316     0.03288
  263        342     0.03982
  264        317     0.03695
  265        289     0.02835
  266        327     0.03096
  267        325     0.03217
  268        316     0.03566
  269        352     0.03255
  270        296     0.02970
  271        328     0.03872
  272        326     0.03689
  273        291     0.02716
  274        311     0.03002
  275        283     0.02595
  276        315     0.03017
  277        315     0.03413
  278        299     0.03434
  279        304     0.02837
  280        272     0.02809
  281        291     0.02787
  282        243     0.02575
  283        286     0.03491
  284        250     0.03129
  285        266     0.03159
  286        232     0.02508
  287        208     0.02285
  288        203     0.02540
  289        216     0.02590
  290        197     0.02600
  291        151     0.02231
  292        158     0.01863
  293        123     0.02198
  294        104     0.01457
  295        104     0.01532
  296        101     0.01438
  297        109     0.02152
  298         78     0.01555
  299         75     0.01909
  300         78     0.01395
  301         66     0.01434
  302         87     0.02559
  303         60     0.01395
  304         66     0.02359
  305         80     0.01972
  306         79     0.02314
  307         57     0.01966
  308         68     0.02026
  309         47     0.01633
  310         58     0.02096
  311         56     0.01759
  312         46     0.01484
  313         66     0.01604
  314         50     0.01790
  315         36     0.01041
  316         37     0.01689
  317         41     0.01740
  318         38     0.01491
  319         38     0.01417
  320         47     0.01472
  321         35     0.01474
  322         33     0.01346
  323         37     0.01189
  324         39     0.02018
  325         37     0.01260
  326         31     0.01503
  327         26     0.01388
  328         23     0.00902
  329         31     0.01478
  330         34     0.01269
  331         26     0.01100
  332         17     0.00833
  333         18     0.00851
  334         23     0.01164
  335         28     0.00966
  336         30     0.01003
  337         21     0.01036
  338         31     0.01260
  339         24     0.00894
  340         25     0.01347
  341         15     0.00840
  342         23     0.01544
  343         19     0.01220
  344         26     0.01467
  345         20     0.01069
  346         30     0.00999
  347         14     0.00794
  348         12     0.00999
  349         18     0.00800
  350         17     0.01006
  351         21     0.00900
  352         23     0.00888
  353         28     0.00989
  354         17     0.00856
  355         17     0.00807
  356         14     0.00790
  357         14     0.01196
  358         21     0.01049
  359         24     0.01242
  360         22     0.00864
  361         14     0.00984
  362         19     0.00874
  363         19     0.01235
  364         15     0.01084
  365         14     0.01104
  366         23     0.01377
  367         25     0.01554
  368         17     0.00837
  369         14     0.00765
  370         20     0.00902
  371         15     0.01102
  372         17     0.01224
  373         18     0.01242
  374         10     0.00791
  375         12     0.00791
  376         15     0.00886
  377         12     0.00801
  378         17     0.01258
  379         21     0.01538
  380         12     0.00747
  381         13     0.00772
  382         12     0.00912
  383          9     0.01006
  384          7     0.00672
  385         11     0.00792
  386         10     0.00797
  387          8     0.01434
  388         11     0.00863
  389          7     0.00991
  390          5     0.00652
  391         12     0.01300
  392         12     0.00776
  393          9     0.01456
  394         13     0.00833
  395         10     0.01208
  396         11     0.00976
  397         13     0.01128
  398         13     0.01006
  399         15     0.00935
  400          5     0.00656
  401         12     0.00832
  402         11     0.00971
  403         10     0.00783
  404          8     0.00734
  405          7     0.00976
  406         18     0.01753
  407         12     0.00871
  408         15     0.00833
  409          9     0.00790
  410          7     0.00971
  411         10     0.00782
  412          6     0.00722
  413          6     0.00693
  414         10     0.00968
  415          9     0.00752
  416          8     0.00728
  417          7     0.00954
  418          5     0.00659
  419         11     0.00984
  420          9     0.00687
  421         11     0.01150
  422          7     0.00702
  423         12     0.00927
  424         14     0.00831
  425          9     0.00720
  426          9     0.00722
  427          9     0.00887
  428         11     0.00934
  429          8     0.00839
  430          6     0.00678
  431          5     0.00633
  432         12     0.01226
  433          2     0.00572
  434          5     0.00654
  435          7     0.00683
  436          8     0.00724
  437          5     0.00801
  438          9     0.01078
  439          8     0.00685
  440          5     0.01053
  441          9     0.00772
  442          6     0.00677
  443          3     0.00605
  444         11     0.00759
  445          9     0.00696
  446          7     0.01054
  447          2     0.00635
  448          8     0.00899
  449          3     0.01081
  450          6     0.00994
  451          7     0.00731
  452         10     0.00739
  453          4     0.00666
  454          5     0.00830
  455         11     0.00794
  456          5     0.00659
  457          5     0.01027
  458          6     0.00955
  459          8     0.01475
  460          4     0.00612
  461          9     0.00733
  462          3     0.00694
  463          9     0.00772
  464          5     0.00895
  465          3     0.00668
  466          2     0.00563
  467          7     0.00945
  468          3     0.00881
  469          5     0.00664
  470          7     0.00671
  471          6     0.00869
  472          7     0.00705
  473          2     0.00561
  474          3     0.00577
  475          3     0.00967
  476          3     0.00610
  477          5     0.00666
  478          6     0.01202
  479          1     0.00600
  480          7     0.00707
  481          3     0.01002
  482          2     0.00618
  483          4     0.00600
  484          3     0.00629
  485          2     0.00633
  486          1     0.00615
  487          3     0.00621
  488          4     0.00626
  489          4     0.00617
  490          3     0.00632
  491          4     0.00631
  492          7     0.00660
  493          4     0.00977
  494          2     0.00596
  495          3     0.00598
  496          1     0.00536
  497          4     0.00588
  498          1     0.00568
  499          2     0.00581
  500          4     0.00599
  501          7     0.00668
  502          7     0.00798
  503          4     0.01108
  504          5     0.00670
  505          3     0.00582
  506          3     0.00589
  507          2     0.00576
  509          6     0.00893
  511          2     0.00581
  512          1     0.00577
  513          1     0.00526
  515          5     0.01086
  517          5     0.00637
  518          2     0.00600
  520          4     0.00605
  521          4     0.00783
  522          1     0.00589
  523          2     0.00588
  524          3     0.00581
  525          1     0.00589
  526          5     0.00936
  528          4     0.00669
  529          1     0.00557
  530          1     0.00586
  531          2     0.00608
  532          1     0.00550
  533          4     0.00609
  534          2     0.00608
  536          1     0.00597
  537          5     0.00629
  538          1     0.00519
  539          1     0.00578
  540          1     0.00605
  542          1     0.00613
  544          2     0.00567
  546          1     0.00550
  547          1     0.00565
  549          1     0.00566
  550          2     0.00577
  551          1     0.00589
  552          2     0.01070
  553          1     0.00608
  554          1     0.00601
  555          2     0.00615
  560          1     0.00626
  562          1     0.00580
  563          1     0.00588
  565          1     0.00636
  566          1     0.00652
  567          2     0.00581
  570          1     0.00643
  571          1     0.00584
  572          1     0.00595
  573          1     0.00573
  575          1     0.00553
  576          1     0.00582
  577          2     0.00590
  580          1     0.00644
  582          2     0.00563
  583          3     0.00864
  584          1     0.00615
  586          2     0.00582
  587          1     0.00618
  590          2     0.00564
  592          1     0.00558
  593          1     0.00587
  594          1     0.00564
  597          1     0.00565
  598          1     0.00553
  600          1     0.00529
  601          2     0.01015
  603          2     0.00552
  605          1     0.00507
  607          1     0.00556
  608          1     0.00610
  611          1     0.00569
  613          1     0.00554
  615          2     0.00841
  618          2     0.00596
  622          1     0.00579
  633          1     0.00566
  635          1     0.00582
  639          1     0.00554
  640          1     0.00547
  643          1     0.00519
  645          1     0.00522
  646          1     0.00566
  648          2     0.00596
  654          1     0.00617
  657          1     0.00891
  662          1     0.00566
  663          1     0.00583
  664          1     0.00590
  674          1     0.00561
  679          1     0.00549
  682          2     0.02754
  687          1     0.00574
  693          1     0.00609
  699          1     0.00549
  703          1     0.00605
  711          2     0.00633
  714          1     0.00617
  725          1     0.00607
  746          1     0.00531
  750          1     0.00583
  819          1     0.00604
  842          1     0.00609
  885          1     0.00544
took 593 iterations
Trial Time:          0.05982
    0          1     0.03601
   21          1     0.03165
   23          1     0.01765
   40          1     0.12958
   41          1     0.00927
   42          2     0.06680
   43          1     0.16414
   44          3     0.17978
   45          4     0.06985
   46          3     0.10453
   47          5     0.43667
   48          8     0.28283
   49         12     0.22173
   50          9     0.19027
   51         13     0.43913
   52         23     0.50964
   53         36     1.01736
   54         49     1.09258
   55         49     0.77233
   56         77     0.82051
   57         98     1.15311
   58        171     1.67802
   59        195     1.23066
   60        255     1.33422
   61        336     1.84215
   62        423     1.48235
   63        488     1.38212
   64        613     1.39926
   65        672     1.45275
   66        726     1.32892
   67        777     1.12931
   68        870     1.00479
   69        863     0.91244
   70        812     0.84648
   71        905     0.89953
   72        915     0.68390
   73        925     0.64860
   74        929     0.60881
   75        940     0.54606
   76        871     0.51096
   77        938     0.47928
   78        948     0.49779
   79        977     0.42850
   80        926     0.34063
   81        909     0.34230
   82        907     0.36546
   83        872     0.30044
   84        952     0.34225
   85        945     0.32415
   86        863     0.25720
   87        823     0.22265
   88        816     0.24924
   89        844     0.22180
   90        840     0.19681
   91        824     0.20819
   92        839     0.20069
   93        804     0.19328
   94        787     0.18421
   95        765     0.15715
   96        778     0.20458
   97        826     0.18751
   98        826     0.15092
   99        829     0.16967
  100        785     0.14206
  101        778     0.14134
  102        747     0.13709
  103        762     0.15425
  104        756     0.12126
  105        704     0.14091
  106        677     0.12980
  107        754     0.12243
  108        677     0.11844
  109        720     0.10903
  110        696     0.11251
  111        666     0.10578
  112        718     0.12625
  113        670     0.10223
  114        656     0.11810
  115        656     0.10192
  116        619     0.09320
  117        665     0.09836
  118        672     0.08630
  119        628     0.09518
  120        627     0.09727
  121        607     0.09119
  122        622     0.08740
  123        623     0.08479
  124        645     0.10602
  125        602     0.08904
  126        585     0.08431
  127        619     0.07539
  128        593     0.08243
  129        604     0.08979
  130        569     0.08145
  131        563     0.06897
  132        572     0.07151
  133        582     0.08349
  134        606     0.07813
  135        575     0.06517
  136        523     0.06706
  137        547     0.06835
  138        536     0.06720
  139        521     0.07713
  140        540     0.06747
  141        568     0.06813
  142        585     0.06782
  143        556     0.07559
  144        547     0.07808
  145        552     0.06441
  146        520     0.07820
  147        525     0.06592
  148        517     0.05998
  149        526     0.06880
  150        519     0.06536
  151        518     0.05745
  152        548     0.08774
  153        514     0.06181
  154        504     0.06914
  155        483     0.05815
  156        546     0.07240
  157        507     0.05909
  158        503     0.05679
  159        524     0.07653
  160        448     0.05452
  161        506     0.05766
  162        540     0.07013
  163        476     0.05567
  164        509     0.05653
  165        523     0.05389
  166        463     0.05164
  167        492     0.06520
  168        477     0.05126
  169        430     0.04537
  170        472     0.05452
  171        492     0.05094
  172        492     0.05916
  173        534     0.05192
  174        468     0.05148
  175        459     0.05007
  176        491     0.05289
  177        483     0.04994
  178        457     0.04205
  179        475     0.05926
  180        406     0.05009
  181        494     0.06133
  182        456     0.05937
  183        469     0.05158
  184        449     0.04433
  185        440     0.04765
  186        442     0.04606
  187        434     0.04739
  188        434     0.04626
  189        428     0.05496
  190        461     0.04583
  191        476     0.04688
  192        430     0.05430
  193        421     0.05082
  194        433     0.05642
  195        377     0.03751
  196        444     0.04969
  197        434     0.04093
  198        385     0.04664
  199        454     0.04683
  200        388     0.03977
  201        410     0.04111
  202        379     0.03729
  203        424     0.04595
  204        402     0.04412
  205        405     0.03882
  206        410     0.04565
  207        405     0.03871
  208        427     0.04133
  209        445     0.05534
  210        414     0.03852
  211        392     0.04398
  212        363     0.03966
  213        395     0.03911
  214        421     0.04572
  215        410     0.03601
  216        416     0.03847
  217        372     0.04577
  218        383     0.04724
  219        385     0.03571
  220        394     0.03871
  221        409     0.04607
  222        402     0.03673
  223        399     0.03882
  224        386     0.04502
  225        385     0.04386
  226        381     0.04673
  227        362     0.04110
  228        415     0.04521
  229        379     0.03565
  230        408     0.04064
  231        360     0.04737
  232        349     0.03000
  233        331     0.03001
  234        395     0.03685
  235        340     0.03731
  236        360     0.03207
  237        391     0.05607
  238        408     0.04141
  239        376     0.03730
  240        345     0.03363
  241        373     0.03485
  242        373     0.03976
  243        357     0.03805
  244        363     0.04152
  245        361     0.04085
  246        346     0.03244
  247        345     0.02603
  248        329     0.03690
  249        327     0.03254
  250        367     0.03745
  251        363     0.03535
  252        362     0.05354
  253        319     0.03077
  254        390     0.03495
  255        374     0.03131
  256        340     0.03568
  257        355     0.03089
  258        338     0.03641
  259        348     0.03507
  260        352     0.03221
  261        345     0.02861
  262        320     0.03421
  263        352     0.03594
  264        308     0.03278
  265        334     0.03476
  266        349     0.03145
  267        298     0.02692
  268        338     0.03563
  269        344     0.03394
  270        337     0.02718
  271        331     0.02966
  272        347     0.03343
  273        352     0.03716
  274        337     0.03015
  275        344     0.03062
  276        312     0.02801
  277        330     0.03191
  278        341     0.03645
  279        327     0.03148
  280        331     0.03363
  281        327     0.03184
  282        350     0.04025
  283        325     0.03666
  284        306     0.03180
  285        348     0.03353
  286        339     0.03866
  287        329     0.03792
  288        311     0.03616
  289        307     0.03293
  290        332     0.03863
  291        326     0.03613
  292        347     0.03517
  293        341     0.02891
  294        334     0.03116
  295        324     0.02859
  296        342     0.03395
  297        292     0.03066
  298        307     0.03311
  299        295     0.03133
  300        319     0.03454
  301        318     0.03890
  302        310     0.03959
  303        344     0.03025
  304        293     0.02513
  305        313     0.02893
  306        287     0.03168
  307        256     0.03987
  308        270     0.02325
  309        290     0.03071
  310        262     0.03377
  311        258     0.03255
  312        235     0.02490
  313        266     0.02685
  314        235     0.02414
  315        210     0.02483
  316        198     0.02776
  317        199     0.02326
  318        134     0.02357
  319        158     0.02746
  320        155     0.02073
  321        118     0.01610
  322        113     0.01880
  323        114     0.02145
  324        111     0.01508
  325         96     0.01925
  326         90     0.01458
  327         80     0.01432
  328         90     0.01451
  329         61     0.01786
  330         77     0.02350
  331         60     0.02051
  332         73     0.01565
  333         62     0.01802
  334         49     0.01651
  335         63     0.02403
  336         60     0.02061
  337         54     0.01555
  338         49     0.01460
  339         61     0.01700
  340         51     0.01762
  341         62     0.01810
  342         39     0.01825
  343         32     0.01308
  344         30     0.01689
  345         37     0.01397
  346         42     0.01619
  347         37     0.01128
  348         37     0.01151
  349         40     0.01390
  350         42     0.01923
  351         36     0.01892
  352         47     0.01414
  353         32     0.01524
  354         21     0.01618
  355         28     0.01008
  356         23     0.01356
  357         26     0.01379
  358         33     0.01593
  359         32     0.01362
  360         31     0.01014
  361         28     0.00993
  362         23     0.00872
  363         29     0.01006
  364         22     0.01223
  365         26     0.01652
  366         22     0.00940
  367         19     0.00878
  368         18     0.00903
  369         21     0.01357
  370         24     0.01116
  371         29     0.00981
  372         21     0.00850
  373         17     0.00848
  374         28     0.01007
  375         16     0.00866
  376         19     0.00899
  377         18     0.01321
  378         18     0.01063
  379         22     0.00860
  380         16     0.00859
  381         25     0.01130
  382         18     0.01094
  383         15     0.00804
  384         17     0.00845
  385         13     0.00726
  386         17     0.00864
  387         25     0.01156
  388         23     0.01061
  389         15     0.00826
  390         24     0.01599
  391         16     0.00957
  392         18     0.01549
  393         16     0.00961
  394         19     0.01582
  395         12     0.01140
  396         21     0.00885
  397         21     0.01035
  398         14     0.00764
  399         15     0.01172
  400         22     0.00914
  401         15     0.00774
  402         15     0.01097
  403          7     0.00986
  404         13     0.00926
  405         15     0.00785
  406         13     0.01291
  407         11     0.00790
  408         13     0.00906
  409         10     0.00707
  410         17     0.00854
  411          9     0.00727
  412         14     0.00803
  413         12     0.01270
  414         12     0.01196
  415          9     0.00685
  416         15     0.00806
  417          7     0.00707
  418          6     0.00828
  419          8     0.01611
  420         14     0.01006
  421          6     0.00817
  422          7     0.00989
  423         11     0.01016
  424         10     0.00759
  425         16     0.00856
  426         14     0.00777
  427         13     0.01146
  428         11     0.00810
  429          8     0.00844
  430         12     0.01154
  431         12     0.01571
  432         12     0.00781
  433         11     0.00879
  434         11     0.00815
  435         10     0.01226
  436         10     0.01154
  437         11     0.01158
  438         11     0.00785
  439          9     0.00729
  440          6     0.00941
  441         10     0.00949
  442          7     0.00705
  443          7     0.00693
  444         12     0.00803
  445          8     0.00747
  446          6     0.00685
  447          8     0.01474
  448          2     0.00732
  449         13     0.00853
  450          7     0.00689
  451          7     0.00674
  452         11     0.00914
  453         12     0.00766
  454         17     0.00854
  455          7     0.00692
  456          4     0.00640
  457         11     0.01263
  458          5     0.00670
  459          9     0.00708
  460          9     0.00981
  461          7     0.00801
  462          4     0.00638
  463          7     0.00922
  464          7     0.01064
  465          8     0.00721
  466          7     0.01094
  467          9     0.01052
  468          2     0.00576
  469          3     0.00548
  470          6     0.00667
  471          7     0.00690
  472          8     0.00696
  473          9     0.00717
  474          3     0.00681
  475          2     0.00622
  476          7     0.00774
  477          7     0.00891
  478          4     0.00616
  479         13     0.00830
  480          4     0.00854
  481         10     0.01067
  482          6     0.00656
  483         10     0.00784
  484          1     0.00577
  485          9     0.01042
  486          7     0.00715
  487          8     0.01353
  488          5     0.00672
  489          5     0.00677
  490          6     0.00647
  491          4     0.00670
  492          5     0.00951
  493          3     0.00944
  494          7     0.01179
  495          2     0.00579
  496          6     0.01121
  497          3     0.00598
  498          6     0.00696
  499          6     0.01005
  500          3     0.00613
  501          6     0.00805
  502          6     0.00731
  503          1     0.01014
  504          4     0.00703
  505          4     0.00651
  506          4     0.00661
  507          3     0.00629
  508          2     0.00588
  509          4     0.00612
  510          8     0.01321
  511          2     0.00548
  512          2     0.00576
  513          3     0.01092
  515          5     0.00621
  516          4     0.00670
  517          4     0.00618
  518          5     0.00658
  519          1     0.00577
  520          7     0.00648
  521          4     0.00622
  522          4     0.00645
  523          2     0.00558
  524          5     0.00598
  525          5     0.00559
  526          1     0.00558
  527          5     0.00931
  528          4     0.01043
  529          1     0.00601
  530          4     0.00626
  532          2     0.00600
  533          4     0.00684
  534          2     0.00576
  535          4     0.00621
  536          3     0.00608
  537          2     0.00603
  538          3     0.00571
  539          4     0.00706
  540          1     0.00617
  541          2     0.00566
  542          1     0.00556
  543          4     0.00602
  544          2     0.01024
  545          4     0.01005
  546          3     0.00589
  548          4     0.00664
  549          1     0.00575
  550          3     0.00701
  551          3     0.00933
  552          3     0.00613
  553          3     0.00624
  554          3     0.00572
  555          1     0.00536
  556          2     0.00545
  557          2     0.00611
  558          1     0.00569
  559          1     0.00600
  561          3     0.00568
  562          3     0.00579
  563          1     0.00546
  564          1     0.00524
  565          3     0.00597
  566          2     0.00577
  567          1     0.00578
  568          1     0.00560
  569          2     0.00586
  570          2     0.00562
  571          1     0.00549
  574          3     0.00595
  576          1     0.00573
  578          1     0.00573
  581          1     0.00556
  582          1     0.00525
  584          1     0.00903
  585          1     0.00540
  586          1     0.00549
  587          1     0.00566
  588          1     0.00538
  589          1     0.00569
  591          1     0.00560
  593          4     0.00627
  594          1     0.00604
  598          1     0.00585
  599          2     0.00573
  601          1     0.00539
  603          1     0.00543
  604          1     0.00580
  606          1     0.00580
  607          1     0.00577
  608          1     0.00567
  609          1     0.00566
  611          4     0.00927
  617          2     0.00547
  619          2     0.00567
  620          1     0.00566
  622          4     0.00609
  623          2     0.00923
  624          1     0.00571
  627          1     0.00549
  629          1     0.00585
  631          2     0.00584
  634          2     0.00545
  638          1     0.00548
  639          1     0.00514
  641          1     0.00572
  642          1     0.00846
  645          1     0.00561
  651          1     0.00578
  656          1     0.00551
  657          1     0.00563
  663          1     0.00534
  664          1     0.00530
  665          1     0.00523
  668          1     0.00559
  671          1     0.00538
  672          1     0.00583
  675          1     0.00608
  678          1     0.00566
  681          1     0.00528
  683          1     0.01101
  688          1     0.00554
  692          1     0.00579
  699          1     0.00522
  700          1     0.02899
  703          1     0.00589
  705          1     0.00552
  708          1     0.00512
  713          1     0.00562
  728          1     0.00515
  733          1     0.00572
  737          1     0.00571
  743          1     0.00548
  746          2     0.00542
  747          1     0.00566
  773          1     0.00575
  775          1     0.00620
  847          1     0.00619
  868          1     0.00610
  903          1     0.00541
took 602 iterations
Trial Time:          0.05998
    0          1     0.02222
  138          1     0.15147
  139          2     0.02541
  141          1     0.03151
  142          1     0.02948
  145          1     0.00578
  146          2     0.02077
  147          2     0.01449
  148          1     0.02981
  151          1     0.01077
  152          2     0.34987
  153          6     0.16851
  154          7     0.68024
  155         15     0.33850
  156         17     0.33944
  157         22     0.58207
  158         27     0.83693
  159         39     1.00062
  160         66     1.00523
  161         79     0.98271
  162        115     1.06503
  163        125     1.17769
  164        186     1.49304
  165        201     1.69206
  166        295     1.32208
  167        401     1.76415
  168        434     1.23594
  169        517     1.55495
  170        596     1.28642
  171        666     1.32136
  172        730     1.28585
  173        827     1.18145
  174        807     0.93472
  175        884     0.98082
  176        883     0.82623
  177        930     0.80952
  178        940     0.73473
  179        936     0.67796
  180        865     0.51515
  181        938     0.49633
  182        969     0.53246
  183        911     0.49585
  184        911     0.38798
  185        938     0.41300
  186        871     0.35461
  187        954     0.41988
  188        866     0.31512
  189        972     0.33143
  190        903     0.30928
  191        887     0.26019
  192        817     0.24342
  193        863     0.25382
  194        883     0.27640
  195        868     0.21630
  196        833     0.18879
  197        881     0.23806
  198        849     0.20781
  199        839     0.19655
  200        853     0.18218
  201        759     0.15155
  202        761     0.14938
  203        842     0.18121
  204        779     0.16380
  205        776     0.15504
  206        822     0.17291
  207        781     0.14560
  208        726     0.13150
  209        728     0.14680
  210        728     0.13127
  211        722     0.11886
  212        712     0.11999
  213        715     0.10646
  214        693     0.12690
  215        698     0.12135
  216        711     0.11469
  217        651     0.09851
  218        654     0.10182
  219        691     0.11091
  220        693     0.11357
  221        667     0.12827
  222        634     0.07947
  223        636     0.09136
  224        644     0.11582
  225        623     0.09243
  226        656     0.09560
  227        609     0.08921
  228        625     0.08738
  229        661     0.10576
  230        596     0.08042
  231        612     0.09792
  232        567     0.07934
  233        603     0.08127
  234        565     0.06985
  235        548     0.07243
  236        547     0.06465
  237        613     0.07422
  238        558     0.08060
  239        556     0.08020
  240        572     0.06703
  241        536     0.07627
  242        557     0.07289
  243        545     0.07214
  244        530     0.06275
  245        564     0.07095
  246        572     0.08068
  247        534     0.05771
  248        508     0.05682
  249        537     0.07067
  250        520     0.05845
  251        550     0.08116
  252        551     0.06797
  253        530     0.06495
  254        510     0.06794
  255        549     0.06250
  256        495     0.06195
  257        535     0.05969
  258        540     0.06881
  259        515     0.06061
  260        541     0.06192
  261        515     0.05819
  262        515     0.06109
  263        519     0.05912
  264        451     0.04657
  265        533     0.06436
  266        496     0.05508
  267        495     0.04928
  268        495     0.07188
  269        498     0.05760
  270        495     0.05427
  271        498     0.05864
  272        472     0.06645
  273        459     0.04811
  274        488     0.05091
  275        461     0.04997
  276        459     0.05591
  277        479     0.05249
  278        520     0.05917
  279        518     0.05185
  280        491     0.06027
  281        481     0.05196
  282        466     0.05091
  283        494     0.05358
  284        480     0.05045
  285        470     0.05423
  286        458     0.05299
  287        451     0.04444
  288        453     0.04129
  289        449     0.05085
  290        436     0.04009
  291        449     0.05533
  292        450     0.04984
  293        438     0.05856
  294        438     0.04859
  295        469     0.04240
  296        451     0.04730
  297        461     0.04903
  298        418     0.04321
  299        451     0.04996
  300        410     0.04208
  301        426     0.04898
  302        394     0.04116
  303        409     0.03787
  304        408     0.04292
  305        438     0.04898
  306        408     0.04441
  307        397     0.04046
  308        421     0.04112
  309        378     0.03297
  310        443     0.05256
  311        411     0.05110
  312        375     0.04521
  313        429     0.03718
  314        404     0.04699
  315        383     0.04016
  316        386     0.04149
  317        393     0.03987
  318        387     0.04441
  319        408     0.03474
  320        415     0.04261
  321        389     0.04100
  322        394     0.04759
  323        394     0.03674
  324        420     0.04598
  325        431     0.03565
  326        415     0.03961
  327        397     0.04598
  328        370     0.04067
  329        432     0.04136
  330        372     0.03849
  331        373     0.04310
  332        357     0.03707
  333        386     0.03966
  334        419     0.04336
  335        369     0.03875
  336        390     0.03471
  337        389     0.04184
  338        394     0.04192
  339        407     0.04083
  340        395     0.04362
  341        368     0.04330
  342        381     0.03624
  343        354     0.04024
  344        369     0.03861
  345        337     0.03087
  346        374     0.03685
  347        364     0.03100
  348        324     0.03365
  349        377     0.03489
  350        360     0.02948
  351        345     0.03295
  352        390     0.03822
  353        337     0.03522
  354        345     0.03907
  355        380     0.03725
  356        335     0.03562
  357        353     0.03738
  358        349     0.03639
  359        355     0.03485
  360        380     0.03640
  361        348     0.03264
  362        370     0.03949
  363        323     0.02944
  364        339     0.03760
  365        310     0.03737
  366        346     0.03680
  367        336     0.03328
  368        335     0.04173
  369        361     0.04326
  370        314     0.02976
  371        356     0.03598
  372        316     0.02865
  373        335     0.03617
  374        343     0.03938
  375        323     0.02847
  376        328     0.02648
  377        365     0.03366
  378        347     0.03444
  379        309     0.03564
  380        318     0.03076
  381        338     0.02869
  382        319     0.03955
  383        315     0.03716
  384        385     0.03950
  385        367     0.03573
  386        323     0.04728
  387        329     0.03308
  388        338     0.03516
  389        351     0.03004
  390        326     0.03200
  391        330     0.03223
  392        337     0.02980
  393        331     0.05135
  394        308     0.03093
  395        328     0.03149
  396        330     0.03223
  397        329     0.03735
  398        301     0.03044
  399        332     0.03667
  400        307     0.03329
  401        344     0.03268
  402        339     0.03314
  403        295     0.03120
  404        307     0.03092
  405        285     0.02572
  406        303     0.02982
  407        307     0.02623
  408        329     0.03310
  409        325     0.02714
  410        293     0.03300
  411        289     0.02273
  412        288     0.03445
  413        309     0.03481
  414        279     0.02842
  415        285     0.03173
  416        295     0.03504
  417        256     0.02850
  418        252     0.02786
  419        236     0.02593
  420        215     0.02839
  421        201     0.02391
  422        181     0.02252
  423        171     0.02223
  424        188     0.02551
  425        164     0.02427
  426        137     0.01966
  427        100     0.01422
  428        119     0.02309
  429         83     0.01498
  430         85     0.01457
  431        100     0.02192
  432         83     0.01955
  433         83     0.01338
  434         92     0.01583
  435         71     0.01942
  436         73     0.02040
  437         62     0.02365
  438         70     0.01600
  439         64     0.01935
  440         72     0.01450
  441         58     0.02025
  442         46     0.01286
  443         46     0.01424
  444         70     0.01821
  445         51     0.01568
  446         36     0.01602
  447         54     0.01612
  448         54     0.02029
  449         44     0.01687
  450         33     0.01435
  451         54     0.02210
  452         42     0.01484
  453         29     0.01197
  454         25     0.00934
  455         33     0.01339
  456         39     0.01838
  457         35     0.01482
  458         32     0.01282
  459         31     0.00964
  460         38     0.01098
  461         33     0.01435
  462         27     0.01532
  463         30     0.00963
  464         32     0.01036
  465         27     0.01152
  466         22     0.00864
  467         27     0.01249
  468         32     0.01454
  469         17     0.01407
  470         29     0.01221
  471         22     0.01474
  472         15     0.01028
  473         21     0.01419
  474         24     0.01038
  475         26     0.00922
  476         22     0.00960
  477         12     0.00838
  478         22     0.00885
  479         29     0.01623
  480         15     0.00803
  481         21     0.01053
  482         23     0.01527
  483         23     0.01076
  484         20     0.01548
  485         20     0.00822
  486         21     0.01158
  487         22     0.00937
  488         23     0.01053
  489         21     0.01336
  490         17     0.00813
  491         18     0.00847
  492         17     0.01041
  493         20     0.00903
  494         18     0.00854
  495         18     0.01042
  496         15     0.00843
  497         20     0.01735
  498         19     0.00903
  499         19     0.01316
  500         16     0.00786
  501         10     0.00755
  502         10     0.00946
  503         12     0.00768
  504         17     0.00858
  505         20     0.01005
  506         19     0.01194
  507         21     0.00926
  508         16     0.01259
  509         15     0.00942
  510         19     0.00938
  511         10     0.00715
  512          4     0.00615
  513         13     0.01089
  514          9     0.00716
  515          9     0.00763
  516         13     0.01213
  517          7     0.01167
  518         17     0.00840
  519         13     0.00823
  520          9     0.00754
  521          9     0.00693
  522          9     0.01016
  523         12     0.01732
  524         11     0.01200
  525         13     0.01251
  526         19     0.01137
  527         11     0.00995
  528          7     0.00666
  529         11     0.00747
  530          8     0.00942
  531         11     0.01110
  532         10     0.00784
  533          9     0.00927
  534         12     0.01223
  535          6     0.01098
  536          7     0.00847
  537          6     0.00678
  538         15     0.00876
  539         15     0.00803
  540         16     0.00838
  541          9     0.00724
  542          8     0.00712
  543         14     0.01064
  544          4     0.00613
  545          8     0.00982
  546          9     0.00966
  547          7     0.00756
  548          6     0.00802
  549          7     0.01059
  550         11     0.01208
  551          8     0.00701
  552         14     0.00844
  553          7     0.00695
  554          9     0.01112
  555          6     0.00669
  556          8     0.00971
  557          5     0.00685
  558         14     0.00863
  559          8     0.00688
  560          8     0.00722
  561          9     0.00921
  562         15     0.00770
  563         12     0.00829
  564          8     0.00914
  565          6     0.00680
  566          5     0.00620
  567          7     0.00876
  568          6     0.00650
  569          7     0.00819
  570          3     0.00682
  571         10     0.01065
  572          4     0.00935
  573          2     0.00573
  574          7     0.00633
  575          6     0.01067
  576          6     0.00926
  577          6     0.00638
  578          5     0.00624
  579          2     0.00584
  580          6     0.00649
  581          7     0.01055
  582         10     0.00760
  583          3     0.00847
  584          9     0.00878
  585          7     0.00769
  586          9     0.01024
  587          6     0.00644
  588          4     0.00676
  589          7     0.00761
  590          8     0.01183
  591          3     0.00626
  592          8     0.00732
  593          8     0.01123
  594          6     0.00985
  595          5     0.00611
  596          8     0.01207
  597          4     0.00769
  598          4     0.00899
  599          1     0.00568
  600          6     0.00666
  601         11     0.01125
  602          3     0.00647
  603          8     0.00860
  604          4     0.00608
  605          4     0.00650
  606          1     0.00560
  608          8     0.01080
  609          5     0.00681
  610          7     0.01097
  611          5     0.01027
  612          3     0.00639
  613          2     0.00624
  615          3     0.00593
  616          4     0.00635
  617          2     0.01151
  618          3     0.00621
  619          3     0.00600
  620          3     0.00577
  621          2     0.00576
  622          7     0.00693
  623          2     0.00570
  624          5     0.01180
  625          5     0.00639
  626          4     0.00636
  627          7     0.01111
  628          5     0.00682
  629          2     0.00566
  630          3     0.00638
  631          1     0.00546
  632          4     0.00702
  633          4     0.00638
  634          4     0.00670
  635          4     0.01012
  636          3     0.00600
  637          6     0.00657
  638          7     0.00699
  639          2     0.00554
  641          1     0.00520
  642          2     0.00559
  643          3     0.00577
  644          3     0.00550
  645          4     0.00913
  646          1     0.00518
  647          4     0.00973
  648          1     0.00526
  649          3     0.00609
  650          3     0.00619
  651          1     0.00539
  652          3     0.00680
  653          3     0.00629
  656          3     0.00592
  657          2     0.00844
  658          2     0.00594
  659          2     0.00606
  660          1     0.00578
  661          3     0.00575
  662          3     0.00538
  664          5     0.00574
  665          2     0.00941
  666          2     0.00568
  667          2     0.00566
  668          2     0.00557
  669          2     0.00598
  672          2     0.00605
  673          2     0.00593
  675          1     0.00619
  677          3     0.00606
  679          1     0.00563
  681          3     0.00614
  683          3     0.00751
  686          2     0.00609
  688          1     0.00622
  689          1     0.00604
  690          1     0.00551
  692          2     0.00634
  694          2     0.00556
  697          1     0.00587
  699          1     0.00589
  702          1     0.00594
  703          3     0.00609
  708          2     0.00628
  710          1     0.00498
  714          2     0.00544
  715          1     0.00551
  716          4     0.00993
  717          1     0.00534
  718          1     0.00522
  719          2     0.00608
  720          2     0.00556
  721          1     0.00587
  722          1     0.00581
  725          3     0.00611
  727          2     0.00913
  731          2     0.00547
  732          1     0.00564
  733          1     0.00567
  734          1     0.00568
  735          1     0.00537
  736          1     0.00562
  741          1     0.00526
  743          1     0.00888
  744          1     0.00572
  746          1     0.00553
  751          1     0.00504
  758          1     0.00573
  759          1     0.00536
  761          1     0.00538
  763          1     0.00581
  767          1     0.00584
  772          1     0.00554
  777          1     0.00544
  778          2     0.00537
  782          2     0.00564
  785          1     0.00571
  786          1     0.00934
  796          1     0.00539
  800          1     0.00553
  805          1     0.00505
  807          1     0.00568
  808          1     0.00512
  811          1     0.00901
  815          1     0.00541
  821          1     0.00545
  827          1     0.00570
  840          2     0.00581
  842          1     0.00609
  851          1     0.00522
  853          1     0.00539
  856          1     0.00540
  874          2     0.00630
  952          1     0.00613
  971          1     0.00614
 1014          1     0.00560
took 592 iterations
Trial Time:          0.06035
    0          1     0.05037
   13          1     0.00558
   14          1     0.11539
   15          1     0.12870
   17          2     0.18996
   18          2     0.11647
   19          6     0.38696
   20          6     0.24371
   21          4     0.05387
   22          9     0.38906
   23         11     0.94913
   24         30     0.89418
   25         49     0.92654
   26         47     0.84782
   27         72     1.03809
   28         83     1.25885
   29        124     1.07818
   30        151     1.23453
   31        206     1.48824
   32        285     1.79159
   33        366     1.47553
   34        422     1.24493
   35        480     1.19629
   36        646     1.50378
   37        644     1.26912
   38        701     1.28166
   39        759     1.13084
   40        833     1.27047
   41        821     0.92571
   42        879     0.93680
   43        950     0.92453
   44        928     0.70462
   45        953     0.68768
   46        896     0.54166
   47        862     0.54364
   48        922     0.51550
   49       1009     0.48367
   50        918     0.42756
   51        924     0.40021
   52        945     0.43792
   53        916     0.34745
   54        942     0.38282
   55        840     0.30266
   56        863     0.27885
   57        848     0.27128
   58        864     0.28421
   59        898     0.26064
   60        823     0.20392
   61        912     0.23512
   62        856     0.20828
   63        804     0.20010
   64        830     0.20436
   65        898     0.20476
   66        825     0.20321
   67        785     0.16341
   68        769     0.17638
   69        834     0.21410
   70        807     0.15801
   71        749     0.14927
   72        801     0.12881
   73        796     0.15431
   74        766     0.15442
   75        725     0.12216
   76        707     0.15294
   77        706     0.13830
   78        678     0.12217
   79        738     0.11972
   80        714     0.11995
   81        720     0.11680
   82        707     0.10716
   83        670     0.10339
   84        699     0.10808
   85        658     0.10874
   86        657     0.10646
   87        702     0.10508
   88        661     0.09552
   89        664     0.09240
   90        658     0.08941
   91        616     0.08449
   92        632     0.08780
   93        604     0.08513
   94        635     0.08546
   95        605     0.07868
   96        598     0.08805
   97        662     0.08785
   98        582     0.08174
   99        581     0.09161
  100        587     0.09716
  101        540     0.06516
  102        594     0.07326
  103        518     0.07776
  104        565     0.06586
  105        581     0.07849
  106        580     0.07184
  107        546     0.07306
  108        544     0.07180
  109        531     0.06182
  110        572     0.06920
  111        559     0.06450
  112        581     0.07975
  113        546     0.08374
  114        547     0.06253
  115        535     0.06578
  116        550     0.07281
  117        538     0.06268
  118        506     0.06553
  119        519     0.07030
  120        517     0.05936
  121        532     0.06893
  122        549     0.06668
  123        544     0.05820
  124        542     0.05806
  125        541     0.05483
  126        499     0.05886
  127        511     0.07284
  128        519     0.05512
  129        527     0.05519
  130        511     0.05837
  131        488     0.06074
  132        530     0.06131
  133        499     0.05446
  134        490     0.06230
  135        506     0.06270
  136        509     0.05667
  137        513     0.06281
  138        494     0.05137
  139        473     0.06406
  140        477     0.06366
  141        500     0.04809
  142        469     0.04943
  143        490     0.05569
  144        481     0.05892
  145        461     0.05335
  146        504     0.05390
  147        439     0.05291
  148        515     0.05559
  149        481     0.04747
  150        431     0.04969
  151        461     0.05312
  152        473     0.05192
  153        490     0.05376
  154        479     0.05264
  155        462     0.05382
  156        462     0.04895
  157        498     0.05040
  158        433     0.04700
  159        407     0.04741
  160        425     0.04694
  161        406     0.04687
  162        468     0.05385
  163        422     0.04202
  164        463     0.04713
  165        419     0.03717
  166        436     0.05218
  167        422     0.05216
  168        451     0.05447
  169        422     0.04743
  170        389     0.03698
  171        408     0.04495
  172        415     0.03598
  173        450     0.05155
  174        413     0.04855
  175        411     0.04272
  176        426     0.04229
  177        412     0.04134
  178        406     0.03845
  179        415     0.04298
  180        425     0.04135
  181        395     0.04074
  182        391     0.04580
  183        385     0.03852
  184        389     0.04380
  185        419     0.03451
  186        394     0.03435
  187        401     0.04080
  188        390     0.04424
  189        413     0.05018
  190        413     0.04392
  191        408     0.03838
  192        414     0.04160
  193        374     0.03714
  194        389     0.03857
  195        446     0.04469
  196        379     0.03781
  197        410     0.04223
  198        363     0.04227
  199        385     0.04696
  200        372     0.03598
  201        377     0.03808
  202        393     0.03819
  203        355     0.03318
  204        381     0.03759
  205        382     0.03421
  206        385     0.03882
  207        396     0.04842
  208        361     0.03693
  209        348     0.03129
  210        404     0.04434
  211        370     0.04363
  212        345     0.04396
  213        364     0.04143
  214        354     0.03378
  215        401     0.03678
  216        371     0.03628
  217        360     0.03343
  218        362     0.03305
  219        390     0.03427
  220        342     0.03330
  221        302     0.03100
  222        378     0.03275
  223        341     0.04132
  224        329     0.05234
  225        287     0.02717
  226        358     0.03363
  227        346     0.02829
  228        354     0.03082
  229        349     0.03188
  230        324     0.03617
  231        349     0.03419
  232        357     0.03205
  233        338     0.02849
  234        361     0.03393
  235        327     0.03129
  236        324     0.03239
  237        330     0.02990
  238        321     0.03515
  239        342     0.03354
  240        348     0.02901
  241        342     0.03539
  242        334     0.03397
  243        345     0.03679
  244        317     0.03026
  245        330     0.03498
  246        330     0.02945
  247        338     0.02857
  248        321     0.03637
  249        309     0.03034
  250        342     0.03386
  251        370     0.04391
  252        325     0.03883
  253        350     0.03634
  254        354     0.03898
  255        331     0.03735
  256        353     0.02970
  257        351     0.03806
  258        311     0.03403
  259        342     0.03891
  260        317     0.03203
  261        339     0.03687
  262        324     0.02987
  263        322     0.04035
  264        340     0.03011
  265        298     0.03349
  266        312     0.03427
  267        335     0.03498
  268        329     0.03046
  269        297     0.03120
  270        266     0.02458
  271        323     0.03449
  272        276     0.02705
  273        311     0.04013
  274        346     0.02942
  275        325     0.02789
  276        313     0.03138
  277        285     0.02658
  278        286     0.03077
  279        277     0.03003
  280        290     0.03078
  281        279     0.02900
  282        271     0.02402
  283        261     0.02728
  284        266     0.03179
  285        219     0.03142
  286        219     0.02309
  287        196     0.03225
  288        201     0.02730
  289        192     0.02573
  290        184     0.02763
  291        165     0.02404
  292        123     0.01496
  293        148     0.02184
  294        113     0.01796
  295         96     0.01458
  296        103     0.01602
  297         94     0.01406
  298         81     0.02847
  299         72     0.01441
  300         88     0.01448
  301         93     0.01756
  302         64     0.01875
  303         76     0.01863
  304         67     0.02285
  305         62     0.01748
  306         53     0.02120
  307         57     0.01713
  308         59     0.01361
  309         54     0.02106
  310         55     0.01728
  311         55     0.01751
  312         56     0.01517
  313         50     0.02066
  314         42     0.01566
  315         39     0.01071
  316         29     0.01637
  317         44     0.01332
  318         33     0.01443
  319         43     0.01208
  320         40     0.02058
  321         33     0.01612
  322         34     0.01103
  323         43     0.01254
  324         41     0.01800
  325         26     0.01170
  326         32     0.01383
  327         34     0.01449
  328         32     0.01010
  329         17     0.00785
  330         37     0.01383
  331         27     0.00931
  332         30     0.01277
  333         28     0.01426
  334         21     0.00909
  335         21     0.00935
  336         26     0.01329
  337         29     0.01475
  338         14     0.00869
  339         26     0.01282
  340         27     0.01192
  341         25     0.00917
  342         14     0.01106
  343         22     0.00951
  344         25     0.01010
  345         19     0.00852
  346         16     0.01220
  347         20     0.01524
  348         24     0.01053
  349         20     0.00828
  350         26     0.00993
  351         18     0.00895
  352         15     0.00819
  353         16     0.01059
  354         24     0.01375
  355         20     0.00861
  356         19     0.01073
  357         17     0.00853
  358         24     0.01220
  359         17     0.01022
  360         15     0.00842
  361         15     0.01250
  362         16     0.01223
  363         13     0.00796
  364         20     0.00918
  365         17     0.00930
  366         13     0.00808
  367         20     0.01333
  368         19     0.00929
  369         23     0.01460
  370         17     0.00855
  371         16     0.01145
  372         12     0.00775
  373         14     0.01123
  374         19     0.01096
  375         15     0.00815
  376         11     0.00766
  377         13     0.00765
  378          7     0.00686
  379         13     0.00811
  380         15     0.00818
  381         14     0.00812
  382         10     0.00846
  383         10     0.00751
  384          9     0.01177
  385         10     0.00733
  386         12     0.01667
  387         20     0.01086
  388         12     0.02766
  389         11     0.01417
  390          7     0.00745
  391         10     0.00771
  392          8     0.00877
  393         10     0.01178
  394          8     0.00737
  395         10     0.00777
  396         13     0.01471
  397         15     0.01443
  398         10     0.00789
  399          9     0.00771
  400         11     0.00991
  401          8     0.00760
  402         17     0.01308
  403          7     0.00726
  404          9     0.00773
  405         12     0.00773
  406         11     0.00741
  407         11     0.01290
  408         10     0.00748
  409         11     0.00749
  410         15     0.00861
  411         10     0.00866
  412          4     0.01004
  413          6     0.00817
  414          8     0.00726
  415         10     0.01071
  416          8     0.00685
  417          9     0.00698
  418          2     0.00625
  419          9     0.00701
  420          9     0.00677
  421         18     0.01005
  422          7     0.00680
  423         11     0.00767
  424          7     0.00660
  425         10     0.00761
  426          7     0.00680
  427         12     0.01294
  428          4     0.00609
  429          8     0.00721
  430          7     0.00863
  431          9     0.01195
  432          6     0.00671
  433          5     0.00683
  434         11     0.00978
  435          7     0.00678
  436          8     0.00725
  437          2     0.00659
  438          7     0.01047
  439          3     0.00626
  440          3     0.00612
  441          5     0.00634
  442          9     0.00711
  443          5     0.00637
  444          3     0.00902
  445          9     0.01034
  446          5     0.00654
  447          8     0.00721
  448          7     0.01155
  449          4     0.00835
  450          6     0.00812
  451          3     0.00592
  452         10     0.01111
  453          8     0.01227
  454          9     0.00696
  455          9     0.00743
  456          7     0.00802
  457         10     0.01277
  458          5     0.00664
  459          7     0.01103
  460          5     0.00765
  461          7     0.00647
  462          4     0.00576
  463          3     0.00567
  464          6     0.00994
  465          6     0.01026
  466          3     0.00892
  467          7     0.00721
  468          6     0.00657
  469          4     0.00636
  470          3     0.00599
  471          6     0.01198
  472          5     0.00673
  473          1     0.00527
  474          4     0.00598
  475          4     0.00791
  476          4     0.00634
  477          3     0.00542
  478          5     0.00639
  479          4     0.00733
  480          4     0.00633
  481          2     0.00925
  482          5     0.01276
  483          2     0.00597
  484          3     0.00627
  485          3     0.00624
  486          3     0.00579
  487          4     0.00624
  488          3     0.00588
  489          3     0.00635
  490          8     0.00716
  491          5     0.01271
  492          3     0.00598
  493          3     0.00577
  494          6     0.00658
  495          1     0.00597
  497          3     0.00956
  498          4     0.00719
  499          3     0.00531
  500          1     0.00569
  501          2     0.00558
  502          3     0.00614
  503          6     0.00671
  504          5     0.00645
  505          5     0.00957
  506          4     0.00614
  507          4     0.00615
  509          4     0.00636
  510          2     0.00568
  511          2     0.00634
  513          5     0.00839
  514          2     0.00587
  515          3     0.00616
  516          3     0.00607
  517          3     0.00936
  518          2     0.00726
  519          2     0.00623
  520          5     0.00674
  521          1     0.00552
  522          3     0.00545
  524          1     0.00555
  525          5     0.01110
  526          2     0.00662
  529          2     0.00541
  530          1     0.00572
  531          1     0.00583
  532          6     0.00623
  534          2     0.00583
  535          2     0.00593
  536          2     0.00572
  537          1     0.00793
  538          2     0.00544
  539          2     0.00582
  540          1     0.00582
  541          1     0.00585
  542          2     0.00523
  544          2     0.00582
  546          1     0.00547
  547          1     0.00511
  551          2     0.00610
  552          3     0.00665
  555          2     0.00590
  558          1     0.00579
  559          1     0.00524
  560          2     0.00579
  562          2     0.00520
  563          1     0.00553
  564          1     0.00518
  566          2     0.00565
  569          1     0.00570
  570          1     0.00535
  571          2     0.00601
  575          2     0.00585
  578          2     0.00597
  579          1     0.00532
  580          1     0.00586
  582          1     0.00549
  585          1     0.00607
  586          1     0.01016
  587          2     0.00631
  588          2     0.00571
  589          1     0.00579
  590          1     0.00646
  592          3     0.00666
  594          2     0.00595
  595          3     0.01214
  596          1     0.00642
  598          1     0.00608
  603          1     0.00558
  606          2     0.00635
  609          1     0.00639
  611          1     0.00558
  615          2     0.00924
  617          1     0.00627
  626          2     0.00642
  629          1     0.00642
  633          1     0.00574
  634          1     0.00571
  642          2     0.00660
  646          1     0.00605
  648          1     0.00621
  649          1     0.00654
  650          1     0.00624
  654          2     0.01066
  657          1     0.00610
  662          1     0.00690
  666          1     0.00617
  676          1     0.00602
  677          1     0.00640
  679          1     0.00883
  686          1     0.00603
  689          1     0.00592
  698          1     0.00568
  705          1     0.00599
  707          1     0.00594
  711          1     0.00536
  718          2     0.00612
  719          1     0.00553
  744          1     0.00601
  746          1     0.00630
  822          1     0.00568
  839          1     0.00565
  882          1     0.00518
took 590 iterations
Trial Time:          0.06030
    0          1     0.02150
   34          1     1.20049
   35         10     0.11073
   36         12     0.40821
   37         14     0.30373
   38         12     0.16176
   39         24     0.62418
   40         38     1.16101
   41         52     1.17021
   42         76     1.64533
   43         93     1.20375
   44        156     1.03229
   45        148     0.84318
   46        212     1.43064
   47        261     1.44859
   48        344     1.45878
   49        406     1.52860
   50        531     1.36655
   51        544     1.21408
   52        651     1.30218
   53        710     1.34501
   54        775     1.20720
   55        826     0.99123
   56        887     1.11007
   57        908     0.87511
   58        901     0.80149
   59        934     0.77547
   60        905     0.70504
   61        926     0.67104
   62        945     0.55430
   63        924     0.44767
   64        964     0.52836
   65        900     0.42633
   66        957     0.43268
   67        969     0.39497
   68        977     0.36442
   69        920     0.36213
   70        871     0.32894
   71        900     0.30809
   72        860     0.25410
   73        863     0.25221
   74        791     0.22389
   75        851     0.23884
   76        879     0.26425
   77        822     0.20314
   78        834     0.22054
   79        845     0.21534
   80        889     0.21579
   81        813     0.17555
   82        777     0.18169
   83        828     0.18161
   84        802     0.19895
   85        763     0.14429
   86        763     0.14454
   87        817     0.17419
   88        754     0.13829
   89        768     0.14531
   90        736     0.12312
   91        764     0.11946
   92        740     0.12912
   93        667     0.11382
   94        731     0.13495
   95        688     0.11075
   96        677     0.12145
   97        671     0.11578
   98        667     0.11602
   99        685     0.10313
  100        687     0.10859
  101        685     0.09640
  102        638     0.11432
  103        661     0.09908
  104        670     0.08780
  105        679     0.09880
  106        676     0.09855
  107        616     0.09125
  108        636     0.08981
  109        620     0.09038
  110        619     0.09020
  111        636     0.08566
  112        660     0.09334
  113        584     0.07785
  114        582     0.07143
  115        564     0.08297
  116        581     0.08262
  117        621     0.07430
  118        542     0.06902
  119        561     0.07954
  120        566     0.07533
  121        552     0.06615
  122        570     0.07781
  123        554     0.06859
  124        583     0.07764
  125        560     0.07326
  126        562     0.07335
  127        553     0.07007
  128        506     0.06656
  129        528     0.06592
  130        530     0.06671
  131        513     0.07251
  132        545     0.06899
  133        513     0.06484
  134        558     0.06425
  135        504     0.08441
  136        517     0.05905
  137        527     0.06897
  138        521     0.06003
  139        534     0.06294
  140        508     0.06150
  141        512     0.05757
  142        472     0.06322
  143        500     0.05212
  144        514     0.05754
  145        496     0.06112
  146        523     0.06818
  147        520     0.06017
  148        518     0.06112
  149        504     0.05607
  150        489     0.05616
  151        555     0.05994
  152        495     0.05286
  153        520     0.06474
  154        478     0.05550
  155        463     0.04820
  156        498     0.05342
  157        485     0.05030
  158        500     0.04881
  159        442     0.05755
  160        458     0.05003
  161        474     0.04990
  162        547     0.05610
  163        449     0.05586
  164        441     0.05586
  165        446     0.05048
  166        458     0.04087
  167        473     0.05330
  168        461     0.05259
  169        437     0.05494
  170        470     0.04988
  171        449     0.04536
  172        438     0.05126
  173        447     0.05695
  174        449     0.04955
  175        431     0.04709
  176        458     0.04859
  177        439     0.05571
  178        449     0.04921
  179        431     0.04673
  180        409     0.04259
  181        438     0.04840
  182        425     0.04556
  183        424     0.04724
  184        410     0.04287
  185        415     0.03863
  186        443     0.04906
  187        449     0.04436
  188        405     0.04180
  189        412     0.04600
  190        384     0.04197
  191        415     0.04592
  192        417     0.04171
  193        389     0.03575
  194        385     0.03889
  195        372     0.04122
  196        399     0.04141
  197        451     0.04090
  198        461     0.04472
  199        409     0.04243
  200        403     0.04250
  201        367     0.03665
  202        402     0.04163
  203        384     0.05135
  204        384     0.04400
  205        379     0.04542
  206        401     0.04011
  207        383     0.03651
  208        390     0.04045
  209        370     0.04645
  210        403     0.03971
  211        393     0.03633
  212        370     0.03677
  213        395     0.03991
  214        385     0.04662
  215        381     0.03722
  216        385     0.04224
  217        400     0.04329
  218        405     0.04353
  219        382     0.04213
  220        392     0.03919
  221        407     0.03162
  222        356     0.03858
  223        392     0.04155
  224        369     0.04473
  225        351     0.04301
  226        377     0.03591
  227        377     0.03324
  228        350     0.03257
  229        368     0.02972
  230        358     0.03652
  231        333     0.03647
  232        373     0.03379
  233        326     0.03949
  234        355     0.02870
  235        352     0.03034
  236        343     0.03506
  237        347     0.03259
  238        367     0.03594
  239        355     0.03549
  240        389     0.03784
  241        375     0.03553
  242        335     0.03575
  243        332     0.03841
  244        341     0.02783
  245        328     0.02818
  246        318     0.04087
  247        334     0.02926
  248        339     0.03842
  249        339     0.03998
  250        333     0.03416
  251        344     0.03461
  252        344     0.02994
  253        359     0.03517
  254        330     0.03357
  255        324     0.03379
  256        332     0.03650
  257        336     0.03392
  258        317     0.03015
  259        316     0.03240
  260        312     0.02731
  261        352     0.03768
  262        320     0.03503
  263        335     0.03204
  264        274     0.03435
  265        347     0.03205
  266        300     0.03547
  267        349     0.03113
  268        340     0.03419
  269        331     0.03529
  270        349     0.03723
  271        341     0.03260
  272        321     0.03408
  273        351     0.03535
  274        321     0.03988
  275        349     0.03597
  276        357     0.03893
  277        330     0.03428
  278        342     0.02942
  279        327     0.02775
  280        331     0.03898
  281        324     0.03265
  282        308     0.03582
  283        341     0.03311
  284        305     0.03216
  285        305     0.03503
  286        298     0.03232
  287        311     0.03158
  288        292     0.02448
  289        313     0.03517
  290        344     0.03680
  291        299     0.03022
  292        315     0.03747
  293        294     0.02996
  294        329     0.03126
  295        299     0.03740
  296        273     0.02733
  297        259     0.02832
  298        264     0.02545
  299        241     0.03003
  300        213     0.02260
  301        217     0.02787
  302        194     0.02799
  303        219     0.03186
  304        187     0.02455
  305        168     0.02335
  306        145     0.01704
  307        140     0.02113
  308        138     0.01847
  309        110     0.01906
  310         87     0.01495
  311        103     0.02109
  312        110     0.01483
  313         91     0.01432
  314         90     0.01936
  315         79     0.03188
  316         71     0.01826
  317         71     0.02217
  318         78     0.02237
  319         70     0.01641
  320         74     0.02758
  321         76     0.01854
  322         54     0.01565
  323         51     0.01797
  324         45     0.01672
  325         53     0.01299
  326         41     0.01487
  327         47     0.01823
  328         41     0.01481
  329         51     0.02110
  330         41     0.01818
  331         45     0.01293
  332         38     0.01101
  333         42     0.01908
  334         38     0.02043
  335         42     0.01649
  336         40     0.01174
  337         26     0.01202
  338         32     0.01138
  339         38     0.01102
  340         37     0.01857
  341         37     0.01385
  342         26     0.00987
  343         27     0.01217
  344         30     0.01538
  345         19     0.00914
  346         37     0.01148
  347         32     0.01018
  348         28     0.01194
  349         22     0.01091
  350         23     0.01023
  351         25     0.00897
  352         21     0.01103
  353         28     0.01314
  354          8     0.00661
[...]
  629          2     0.00588
  630          2     0.00569
  631          2     0.00544
  632          3     0.00594
  633          3     0.00595
  634          1     0.00519
  635          3     0.00521
  636          3     0.00606
  637          2     0.00887
  640          2     0.00536
  641          1     0.00510
  642          3     0.00974
  643          1     0.00568
  644          1     0.00533
  645          3     0.00563
  646          1     0.00579
  649          1     0.00568
  650          1     0.00570
  651          3     0.00511
  654          2     0.00544
  655          3     0.00581
  657          2     0.00622
  658          1     0.00652
  659          1     0.00657
  665          1     0.00607
  667          2     0.00636
  668          3     0.00597
  669          1     0.00606
  671          1     0.00577
  672          3     0.00572
  674          1     0.00554
  678          1     0.00545
  680          2     0.00614
  681          1     0.00545
  683          1     0.00528
  686          1     0.00567
  687          1     0.00546
  689          1     0.00588
  690          2     0.00556
  691          1     0.00940
  692          1     0.00572
  693          2     0.00569
  695          1     0.00955
  697          2     0.00570
  699          1     0.00523
  700          2     0.00564
  701          1     0.00529
  702          2     0.00598
  703          3     0.00578
  706          1     0.00561
  708          1     0.00582
  709          1     0.00547
  710          1     0.00548
  712          1     0.00656
  716          1     0.00642
  717          1     0.00593
  719          1     0.00601
  720          1     0.00573
  725          1     0.00583
  726          2     0.00909
  727          1     0.00560
  732          1     0.00603
  739          1     0.00602
  743          1     0.00601
  747          2     0.00531
  749          1     0.00942
  753          1     0.00571
  754          1     0.00614
  758          2     0.00603
  759          1     0.00525
  760          1     0.00556
  771          1     0.00560
  775          1     0.00578
  778          1     0.00557
  781          1     0.00560
  782          1     0.00573
  783          1     0.00999
  797          1     0.00543
  801          2     0.00522
  810          1     0.00566
  813          1     0.00551
  815          1     0.00584
  827          2     0.00592
  850          1     0.00534
  857          1     0.00613
  931          1     0.00604
  934          1     0.00583
  986          1     0.00483
took 599 iterations
Trial Time:          0.06076
    0          1     0.02277
   97          1     0.14320
   99          1     0.00852
  104          2     0.43798
  105          5     0.36357
  106          5     0.10362
  107         10     0.29034
  108         12     0.39280
  109         10     0.27443
  110         15     0.25513
  111         18     0.59876
  112         30     1.20368
  113         48     1.76189
  114         90     1.40396
  115        123     1.59096
  116        165     1.60424
  117        217     1.25442
  118        283     1.52910
  119        386     1.51691
  120        449     1.46345
  121        545     1.34826
  122        598     1.20698
  123        674     1.21371
  124        716     1.21882
  125        764     1.24276
  126        824     1.10959
  127        842     0.93653
  128        875     0.85650
  129        862     0.74437
  130        942     0.77872
  131        940     0.73188
  132        950     0.59857
  133        955     0.53035
  134        944     0.47866
  135        926     0.47909
  136        902     0.44360
  137        950     0.45871
  138        977     0.42989
  139        938     0.34881
  140        937     0.36745
  141        870     0.29188
  142        870     0.29240
  143        912     0.31694
  144        847     0.24181
  145        846     0.23926
  146        852     0.23205
  147        849     0.22695
  148        845     0.20297
  149        841     0.20482
  150        781     0.22986
  151        900     0.22228
  152        824     0.17774
  153        826     0.17649
  154        810     0.18127
  155        790     0.17254
  156        790     0.17574
  157        772     0.14748
  158        781     0.15914
  159        789     0.14101
  160        721     0.14649
  161        733     0.11835
  162        716     0.13972
  163        699     0.12269
  164        653     0.11331
  165        708     0.12365
  166        704     0.12798
  167        661     0.10035
  168        649     0.10232
  169        718     0.11850
  170        660     0.11996
  171        732     0.11432
  172        670     0.09767
  173        700     0.11749
  174        657     0.10492
  175        633     0.09277
  176        687     0.09762
  177        675     0.09227
  178        659     0.09487
  179        616     0.09825
  180        630     0.07779
  181        596     0.07920
  182        618     0.08961
  183        577     0.08387
  184        616     0.07543
  185        610     0.08134
  186        604     0.08084
  187        609     0.08713
  188        594     0.07769
  189        554     0.07911
  190        585     0.07698
  191        539     0.07218
  192        568     0.06801
  193        587     0.07834
  194        545     0.06239
  195        576     0.08223
  196        544     0.07793
  197        539     0.06374
  198        534     0.06138
  199        542     0.07031
  200        536     0.06738
  201        556     0.06669
  202        549     0.08390
  203        548     0.06718
  204        539     0.06983
  205        564     0.06804
  206        502     0.06258
  207        557     0.06221
  208        502     0.06330
  209        547     0.06374
  210        521     0.06316
  211        537     0.05184
  212        496     0.06388
  213        485     0.05218
  214        528     0.05968
  215        527     0.06040
  216        498     0.05476
  217        490     0.05982
  218        482     0.05604
  219        495     0.05699
  220        490     0.05468
  221        503     0.05512
  222        513     0.06706
  223        491     0.05566
  224        519     0.05297
  225        520     0.05890
  226        497     0.06137
  227        489     0.05412
  228        467     0.04785
  229        449     0.05180
  230        517     0.05867
  231        506     0.05717
  232        466     0.04814
  233        442     0.05853
  234        475     0.05816
  235        492     0.05468
  236        468     0.04876
  237        460     0.05144
  238        457     0.05279
  239        427     0.04792
  240        481     0.04548
  241        448     0.05087
  242        445     0.04607
  243        468     0.04856
  244        438     0.04856
  245        460     0.05171
  246        436     0.04631
  247        424     0.04258
  248        481     0.05215
  249        420     0.04812
  250        415     0.04333
  251        422     0.04762
  252        409     0.04994
  253        414     0.04180
  254        452     0.04055
  255        400     0.03711
  256        419     0.03776
  257        404     0.04650
  258        422     0.04372
  259        418     0.04316
  260        387     0.04544
  261        422     0.03962
  262        411     0.04472
  263        434     0.04191
  264        396     0.03775
  265        412     0.03985
  266        393     0.03908
  267        397     0.04568
  268        420     0.04238
  269        423     0.04022
  270        437     0.04804
  271        393     0.04021
  272        407     0.04944
  273        404     0.04385
  274        373     0.04118
  275        404     0.04026
  276        359     0.03981
  277        403     0.03794
  278        412     0.04288
  279        388     0.03977
  280        378     0.03708
  281        387     0.03659
  282        396     0.03864
  283        387     0.04280
  284        385     0.04436
  285        372     0.03237
  286        432     0.04598
  287        383     0.03903
  288        362     0.03445
  289        363     0.03333
  290        367     0.03499
  291        364     0.03598
  292        382     0.03432
  293        342     0.04386
  294        379     0.03668
  295        363     0.03679
  296        391     0.03813
  297        344     0.03363
  298        380     0.03278
  299        387     0.03673
  300        356     0.04072
  301        403     0.04001
  302        364     0.03821
  303        360     0.03291
  304        349     0.03388
  305        337     0.03323
  306        340     0.03206
  307        317     0.03685
  308        340     0.03358
  309        397     0.03378
  310        341     0.04569
  311        360     0.03646
  312        331     0.03446
  313        356     0.03242
  314        336     0.03064
  315        370     0.03645
  316        324     0.03162
  317        309     0.02612
  318        354     0.03467
  319        362     0.03476
  320        341     0.03208
  321        331     0.03238
  322        355     0.04097
  323        318     0.03453
  324        334     0.03000
  325        355     0.02773
  326        338     0.03384
  327        334     0.03038
  328        314     0.03034
  329        309     0.02858
  330        351     0.02998
  331        331     0.03327
  332        350     0.03671
  333        303     0.03453
  334        368     0.03344
  335        301     0.03313
  336        338     0.03857
  337        319     0.03137
  338        341     0.04336
  339        345     0.03420
  340        343     0.03600
  341        362     0.03828
  342        342     0.04065
  343        357     0.04025
  344        331     0.03292
  345        341     0.02932
  346        318     0.03889
  347        336     0.03865
  348        326     0.04509
  349        356     0.03742
  350        329     0.02639
  351        343     0.02978
  352        314     0.03132
  353        339     0.03006
  354        344     0.03337
  355        309     0.03374
  356        336     0.03211
  357        295     0.03441
  358        303     0.03587
  359        312     0.03600
  360        306     0.03042
  361        285     0.02423
  362        315     0.02812
  363        324     0.03299
  364        279     0.02665
  365        295     0.03464
  366        269     0.02946
  367        250     0.02630
  368        294     0.02866
  369        261     0.02982
  370        271     0.02920
  371        224     0.02399
  372        200     0.02500
  373        200     0.03351
  374        199     0.02810
  375        202     0.02170
  376        188     0.02699
  377        141     0.01775
  378        161     0.02406
  379        125     0.02240
  380        123     0.01775
  381        105     0.01548
  382         89     0.01832
  383         84     0.01659
  384         83     0.01471
  385         78     0.01776
  386         79     0.01409
  387         66     0.01880
  388         79     0.01807
  389         82     0.02033
  390         71     0.01435
  391         71     0.01796
  392         65     0.01618
  393         50     0.01726
  394         52     0.01216
  395         48     0.01256
  396         53     0.01883
  397         57     0.01312
  398         50     0.01591
  399         44     0.01729
  400         50     0.02066
  401         36     0.01224
  402         55     0.02057
  403         41     0.01792
  404         46     0.01233
  405         32     0.01535
  406         31     0.01246
  407         37     0.01277
  408         29     0.01035
  409         34     0.01982
  410         38     0.01323
  411         42     0.01556
  412         35     0.01574
  413         29     0.00966
  414         26     0.01184
  415         26     0.01341
  416         37     0.01458
  417         26     0.01336
  418         27     0.01248
  419         24     0.00935
  420         21     0.01139
  421         20     0.00907
  422         26     0.01493
  423         23     0.01436
  424         22     0.01068
  425         22     0.00933
  426         30     0.00973
  427         22     0.00896
  428         16     0.00929
  429         21     0.01465
  430         21     0.00931
  431         16     0.00796
  432         22     0.01091
  433         21     0.00968
  434         16     0.00856
  435         23     0.00896
  436         17     0.00819
  437         17     0.01495
  438         23     0.01375
  439         20     0.01261
  440         22     0.00873
  441         23     0.01159
  442         20     0.01404
  443         13     0.00769
  444         27     0.01011
  445         23     0.01309
  446         16     0.00840
  447         15     0.00803
  448         18     0.01318
  449         13     0.01333
  450         20     0.00880
  451         17     0.01040
  452         15     0.01011
  453         21     0.00896
  454         10     0.00724
  455         15     0.01627
  456         20     0.01048
  457         18     0.00946
  458         18     0.00829
  459         11     0.01125
  460         19     0.01765
  461         12     0.00908
  462         14     0.00798
  463         14     0.01100
  464          9     0.00757
  465         10     0.00745
  466          9     0.00691
  467          8     0.00743
  468         18     0.00843
  469         11     0.00778
  470         10     0.01171
  471         15     0.01059
  472         10     0.00868
  473         11     0.00870
  474         15     0.00869
  475         12     0.01065
  476         10     0.01481
  477         11     0.01219
  478         13     0.01055
  479          5     0.00923
  480         13     0.00774
  481         10     0.00805
  482          9     0.00729
  483          9     0.01077
  484         16     0.03269
  485         10     0.01053
  486          9     0.01007
  487         10     0.01257
  488          8     0.00778
  489         15     0.01123
  490         14     0.01472
  491         12     0.00802
  492          9     0.00724
  493         10     0.00916
  494          5     0.00594
  495         12     0.00968
  496          8     0.00723
  497          8     0.00788
  498          9     0.00902
  499          8     0.00714
  500          9     0.00847
  501          6     0.01031
  502          6     0.01020
  503          5     0.00850
  504          7     0.00719
  505          8     0.00698
  506          8     0.00721
  507         13     0.00815
  508          4     0.00665
  509         15     0.00806
  510         16     0.00850
  511         13     0.00778
  512          8     0.00718
  513         13     0.00815
  514          9     0.00835
  515          4     0.00643
  516          6     0.00966
  517          7     0.00726
  518          1     0.00613
  519          6     0.01140
  520          7     0.01373
  521          3     0.00596
  522          9     0.00854
  523          6     0.00667
  524          6     0.00662
  525          7     0.00721
  526          6     0.01034
  527          6     0.00616
  528          4     0.00738
  529          9     0.00750
  530          5     0.00661
  531          6     0.00633
  532          6     0.00951
  533          5     0.01094
  534          6     0.00839
  535          4     0.00610
  536          7     0.00688
  537          8     0.00745
  538          6     0.01044
  539          3     0.00624
  540          9     0.01512
  541         15     0.00823
  542         10     0.00757
  543          7     0.00694
  544          5     0.00589
  545          5     0.00607
  546          5     0.00661
  548          6     0.00898
  549          5     0.00637
  550         15     0.01078
  551          3     0.00850
  552          2     0.00972
  553          7     0.01211
  554          3     0.00648
  555          2     0.00694
  556          6     0.00694
  557          3     0.00960
  558          4     0.00628
  559          4     0.00988
  560          4     0.00669
  561          7     0.00934
  562          2     0.00554
  563          2     0.00541
  564          4     0.00595
  565          3     0.00603
  566          4     0.00633
  567          7     0.01634
  568          1     0.00525
  569          6     0.00652
  570          5     0.00682
  571          1     0.00541
  572          3     0.00628
  573          3     0.00677
  574          6     0.00635
  575          5     0.00730
  576          1     0.00540
  577          5     0.00644
  578          6     0.01334
  579          2     0.00603
  580          4     0.00636
  581          3     0.00592
  582          3     0.00588
  583          2     0.00592
  584          5     0.00588
  585          2     0.00575
  586          2     0.00601
  587          4     0.00729
  588          5     0.00975
  589          1     0.00603
  590          7     0.00664
  591          3     0.00593
  592          2     0.00591
  593          2     0.00552
  594          3     0.00642
  595          1     0.00558
  596          2     0.00589
  597          1     0.00620
  598          3     0.00668
  599          1     0.00578
  600          4     0.00656
  601          4     0.00629
  602          2     0.00600
  603          4     0.00894
  604          2     0.00852
  605          3     0.00907
  606          3     0.00620
  607          2     0.00600
  608          3     0.00567
  609          2     0.00839
  610          1     0.00609
  611          2     0.00600
  612          2     0.00530
  613          2     0.00632
  614          3     0.00596
  615          1     0.00576
  617          2     0.00565
  618          5     0.00922
  620          4     0.00618
  621          1     0.00545
  623          2     0.00617
  624          2     0.00595
  625          2     0.00660
  626          1     0.00656
  627          3     0.00742
  628          1     0.00646
  629          2     0.00682
  632          1     0.00703
  633          1     0.00667
  636          1     0.00658
  637          1     0.00983
  640          1     0.00657
  641          2     0.00683
  643          1     0.00609
  644          2     0.00706
  647          3     0.00653
  650          2     0.00634
  651          1     0.00661
  656          1     0.00661
  657          2     0.00618
  658          1     0.00675
  660          1     0.00698
  662          1     0.00661
  663          1     0.00636
  664          2     0.00717
  665          1     0.03003
  666          1     0.00622
  667          2     0.00656
  670          2     0.00629
  674          3     0.00658
  677          2     0.00609
  678          2     0.00653
  679          1     0.00653
  681          1     0.00626
  682          1     0.00943
  683          2     0.00651
  685          1     0.00588
  686          1     0.00564
  688          1     0.00600
  689          1     0.00648
  694          1     0.00641
  696          1     0.00652
  698          1     0.00601
  699          2     0.00617
  702          1     0.00654
  704          1     0.00997
  709          1     0.00648
  710          1     0.00682
  716          1     0.00614
  722          1     0.00660
  724          1     0.00652
  726          1     0.00606
  730          1     0.00599
  732          1     0.00613
  735          2     0.00576
  736          1     0.00933
  737          1     0.00613
  740          1     0.00603
  746          1     0.00556
  752          1     0.00594
  758          2     0.00590
  759          1     0.00577
  763          1     0.00919
  768          1     0.00619
  771          1     0.00576
  784          1     0.00579
  790          1     0.00599
  794          1     0.00554
  796          1     0.00664
  803          1     0.00611
  806          1     0.00624
  810          1     0.00624
  835          2     0.00680
  901          1     0.00568
  921          1     0.00600
  966          1     0.00526
took 594 iterations
Trial Time:          0.06032
Average Time:        0.06026
Exiting @ tick 2236713142000 because exiting with last active thread context
