
---------- Begin Simulation Statistics ----------
final_tick                               1271655631500                       # Number of ticks from beginning of simulation (restored from checkpoints and never reset)
host_inst_rate                                  59454                       # Simulator instruction rate (inst/s)
host_mem_usage                                 702104                       # Number of bytes of host memory used
host_op_rate                                    59628                       # Simulator op (including micro ops) rate (op/s)
host_seconds                                 24163.60                       # Real time elapsed on the host
host_tick_rate                               52626918                       # Simulator tick rate (ticks/s)
sim_freq                                 1000000000000                       # Frequency of simulated ticks
sim_insts                                  1436629898                       # Number of instructions simulated
sim_ops                                    1440833653                       # Number of ops (including micro ops) simulated
sim_seconds                                  1.271656                       # Number of seconds simulated
sim_ticks                                1271655631500                       # Number of ticks simulated
system.cpu0.branchPred.BTBCorrect                   0                       # Number of correct BTB predictions (this stat may not work properly.
system.cpu0.branchPred.BTBHitPct            87.679456                       # BTB Hit Percentage
system.cpu0.branchPred.BTBHits              199151293                       # Number of BTB hits
system.cpu0.branchPred.BTBLookups           227135639                       # Number of BTB lookups
system.cpu0.branchPred.RASInCorrect                 0                       # Number of incorrect RAS predictions.
system.cpu0.branchPred.condIncorrect         32292535                       # Number of conditional branches incorrect
system.cpu0.branchPred.condPredicted        290400026                       # Number of conditional branches predicted
system.cpu0.branchPred.indirectHits          25849972                       # Number of indirect target hits.
system.cpu0.branchPred.indirectLookups       26875797                       # Number of indirect predictor lookups.
system.cpu0.branchPred.indirectMisses         1025825                       # Number of indirect misses.
system.cpu0.branchPred.lookups              377113548                       # Number of BP lookups
system.cpu0.branchPred.usedRAS                      0                       # Number of times the RAS was used to get a target.
system.cpu0.branchPredindirectMispredicted      2189528                       # Number of mispredicted indirect branches.
system.cpu0.commit.amos                       2100285                       # Number of atomic instructions committed
system.cpu0.commit.branchMispredicts         16096465                       # The number of times a branch was mispredicted
system.cpu0.commit.branches                 329547645                       # Number of branches committed
system.cpu0.commit.bw_lim_events             41155169                       # number cycles where commit BW limit reached
system.cpu0.commit.commitNonSpecStalls        6309751                       # The number of times commit has been forced to stall to communicate backwards
system.cpu0.commit.commitSquashedInsts      167214033                       # The number of squashed insts skipped by commit
system.cpu0.commit.committedInsts          1316564768                       # Number of instructions committed
system.cpu0.commit.committedOps            1318668340                       # Number of ops (including micro ops) committed
system.cpu0.commit.committed_per_cycle::samples   2307275150                       # Number of insts commited each cycle
system.cpu0.commit.committed_per_cycle::mean     0.571526                       # Number of insts commited each cycle
system.cpu0.commit.committed_per_cycle::stdev     1.365354                       # Number of insts commited each cycle
system.cpu0.commit.committed_per_cycle::underflows            0      0.00%      0.00% # Number of insts commited each cycle
system.cpu0.commit.committed_per_cycle::0   1692554552     73.36%     73.36% # Number of insts commited each cycle
system.cpu0.commit.committed_per_cycle::1    356484887     15.45%     88.81% # Number of insts commited each cycle
system.cpu0.commit.committed_per_cycle::2     86345785      3.74%     92.55% # Number of insts commited each cycle
system.cpu0.commit.committed_per_cycle::3     85494445      3.71%     96.26% # Number of insts commited each cycle
system.cpu0.commit.committed_per_cycle::4     31151614      1.35%     97.61% # Number of insts commited each cycle
system.cpu0.commit.committed_per_cycle::5      6909838      0.30%     97.91% # Number of insts commited each cycle
system.cpu0.commit.committed_per_cycle::6      5640470      0.24%     98.15% # Number of insts commited each cycle
system.cpu0.commit.committed_per_cycle::7      1538390      0.07%     98.22% # Number of insts commited each cycle
system.cpu0.commit.committed_per_cycle::8     41155169      1.78%    100.00% # Number of insts commited each cycle
system.cpu0.commit.committed_per_cycle::overflows            0      0.00%    100.00% # Number of insts commited each cycle
system.cpu0.commit.committed_per_cycle::min_value            0                       # Number of insts commited each cycle
system.cpu0.commit.committed_per_cycle::max_value            8                       # Number of insts commited each cycle
system.cpu0.commit.committed_per_cycle::total   2307275150                       # Number of insts commited each cycle
system.cpu0.commit.fp_insts                        50                       # Number of committed floating point instructions.
system.cpu0.commit.function_calls            25143494                       # Number of function calls committed.
system.cpu0.commit.int_insts               1273936434                       # Number of committed integer instructions.
system.cpu0.commit.loads                    405171672                       # Number of loads committed
system.cpu0.commit.membars                    4203730                       # Number of memory barriers committed
system.cpu0.commit.op_class_0::No_OpClass      4203736      0.32%      0.32% # Class of committed instruction
system.cpu0.commit.op_class_0::IntAlu       742073930     56.27%     56.59% # Class of committed instruction
system.cpu0.commit.op_class_0::IntMult       11833032      0.90%     57.49% # Class of committed instruction
system.cpu0.commit.op_class_0::IntDiv         2099835      0.16%     57.65% # Class of committed instruction
system.cpu0.commit.op_class_0::FloatAdd             0      0.00%     57.65% # Class of committed instruction
system.cpu0.commit.op_class_0::FloatCmp             4      0.00%     57.65% # Class of committed instruction
system.cpu0.commit.op_class_0::FloatCvt            12      0.00%     57.65% # Class of committed instruction
system.cpu0.commit.op_class_0::FloatMult            0      0.00%     57.65% # Class of committed instruction
system.cpu0.commit.op_class_0::FloatMultAcc            0      0.00%     57.65% # Class of committed instruction
system.cpu0.commit.op_class_0::FloatDiv             2      0.00%     57.65% # Class of committed instruction
system.cpu0.commit.op_class_0::FloatMisc            4      0.00%     57.65% # Class of committed instruction
system.cpu0.commit.op_class_0::FloatSqrt            0      0.00%     57.65% # Class of committed instruction
system.cpu0.commit.op_class_0::SimdAdd              0      0.00%     57.65% # Class of committed instruction
system.cpu0.commit.op_class_0::SimdAddAcc            0      0.00%     57.65% # Class of committed instruction
system.cpu0.commit.op_class_0::SimdAlu              0      0.00%     57.65% # Class of committed instruction
system.cpu0.commit.op_class_0::SimdCmp              0      0.00%     57.65% # Class of committed instruction
system.cpu0.commit.op_class_0::SimdCvt              0      0.00%     57.65% # Class of committed instruction
system.cpu0.commit.op_class_0::SimdMisc             0      0.00%     57.65% # Class of committed instruction
system.cpu0.commit.op_class_0::SimdMult             0      0.00%     57.65% # Class of committed instruction
system.cpu0.commit.op_class_0::SimdMultAcc            0      0.00%     57.65% # Class of committed instruction
system.cpu0.commit.op_class_0::SimdShift            0      0.00%     57.65% # Class of committed instruction
system.cpu0.commit.op_class_0::SimdShiftAcc            0      0.00%     57.65% # Class of committed instruction
system.cpu0.commit.op_class_0::SimdDiv              0      0.00%     57.65% # Class of committed instruction
system.cpu0.commit.op_class_0::SimdSqrt             0      0.00%     57.65% # Class of committed instruction
system.cpu0.commit.op_class_0::SimdFloatAdd            0      0.00%     57.65% # Class of committed instruction
system.cpu0.commit.op_class_0::SimdFloatAlu            0      0.00%     57.65% # Class of committed instruction
system.cpu0.commit.op_class_0::SimdFloatCmp            0      0.00%     57.65% # Class of committed instruction
system.cpu0.commit.op_class_0::SimdFloatCvt            0      0.00%     57.65% # Class of committed instruction
system.cpu0.commit.op_class_0::SimdFloatDiv            0      0.00%     57.65% # Class of committed instruction
system.cpu0.commit.op_class_0::SimdFloatMisc            0      0.00%     57.65% # Class of committed instruction
system.cpu0.commit.op_class_0::SimdFloatMult            0      0.00%     57.65% # Class of committed instruction
system.cpu0.commit.op_class_0::SimdFloatMultAcc            0      0.00%     57.65% # Class of committed instruction
system.cpu0.commit.op_class_0::SimdFloatSqrt            0      0.00%     57.65% # Class of committed instruction
system.cpu0.commit.op_class_0::SimdReduceAdd            0      0.00%     57.65% # Class of committed instruction
system.cpu0.commit.op_class_0::SimdReduceAlu            0      0.00%     57.65% # Class of committed instruction
system.cpu0.commit.op_class_0::SimdReduceCmp            0      0.00%     57.65% # Class of committed instruction
system.cpu0.commit.op_class_0::SimdFloatReduceAdd            0      0.00%     57.65% # Class of committed instruction
system.cpu0.commit.op_class_0::SimdFloatReduceCmp            0      0.00%     57.65% # Class of committed instruction
system.cpu0.commit.op_class_0::SimdAes              0      0.00%     57.65% # Class of committed instruction
system.cpu0.commit.op_class_0::SimdAesMix            0      0.00%     57.65% # Class of committed instruction
system.cpu0.commit.op_class_0::SimdSha1Hash            0      0.00%     57.65% # Class of committed instruction
system.cpu0.commit.op_class_0::SimdSha1Hash2            0      0.00%     57.65% # Class of committed instruction
system.cpu0.commit.op_class_0::SimdSha256Hash            0      0.00%     57.65% # Class of committed instruction
system.cpu0.commit.op_class_0::SimdSha256Hash2            0      0.00%     57.65% # Class of committed instruction
system.cpu0.commit.op_class_0::SimdShaSigma2            0      0.00%     57.65% # Class of committed instruction
system.cpu0.commit.op_class_0::SimdShaSigma3            0      0.00%     57.65% # Class of committed instruction
system.cpu0.commit.op_class_0::SimdPredAlu            0      0.00%     57.65% # Class of committed instruction
system.cpu0.commit.op_class_0::MemRead      407271949     30.89%     88.53% # Class of committed instruction
system.cpu0.commit.op_class_0::MemWrite     151185808     11.47%    100.00% # Class of committed instruction
system.cpu0.commit.op_class_0::FloatMemRead            8      0.00%    100.00% # Class of committed instruction
system.cpu0.commit.op_class_0::FloatMemWrite           20      0.00%    100.00% # Class of committed instruction
system.cpu0.commit.op_class_0::IprAccess            0      0.00%    100.00% # Class of committed instruction
system.cpu0.commit.op_class_0::InstPrefetch            0      0.00%    100.00% # Class of committed instruction
system.cpu0.commit.op_class_0::total       1318668340                       # Class of committed instruction
system.cpu0.commit.refs                     558457785                       # Number of memory references committed
system.cpu0.commit.swp_count                        0                       # Number of s/w prefetches committed
system.cpu0.commit.vec_insts                        0                       # Number of committed Vector instructions.
system.cpu0.committedInsts                 1316564768                       # Number of Instructions Simulated
system.cpu0.committedOps                   1318668340                       # Number of Ops (including micro ops) Simulated
system.cpu0.cpi                              1.927456                       # CPI: Cycles Per Instruction
system.cpu0.cpi_total                        1.927456                       # CPI: Total CPI of All Threads
system.cpu0.decode.BlockedCycles            435689995                       # Number of cycles decode is blocked
system.cpu0.decode.BranchMispred             16247024                       # Number of times decode detected a branch misprediction
system.cpu0.decode.BranchResolved           189118100                       # Number of times decode resolved a branch
system.cpu0.decode.DecodedInsts            1517348670                       # Number of instructions handled by decode
system.cpu0.decode.IdleCycles               848854820                       # Number of cycles decode is idle
system.cpu0.decode.RunCycles               1033720092                       # Number of cycles decode is running
system.cpu0.decode.SquashCycles              16106700                       # Number of cycles decode is squashing
system.cpu0.decode.SquashedInsts             24074355                       # Number of squashed instructions handled by decode
system.cpu0.decode.UnblockCycles              8375838                       # Number of cycles decode is unblocking
system.cpu0.dtb.accesses                            0                       # DTB accesses
system.cpu0.dtb.hits                                0                       # DTB hits
system.cpu0.dtb.misses                              0                       # DTB misses
system.cpu0.dtb.read_accesses                       0                       # DTB read accesses
system.cpu0.dtb.read_hits                           0                       # DTB read hits
system.cpu0.dtb.read_misses                         0                       # DTB read misses
system.cpu0.dtb.write_accesses                      0                       # DTB write accesses
system.cpu0.dtb.write_hits                          0                       # DTB write hits
system.cpu0.dtb.write_misses                        0                       # DTB write misses
system.cpu0.fetch.Branches                  377113548                       # Number of branches that fetch encountered
system.cpu0.fetch.CacheLines                273403321                       # Number of cache lines fetched
system.cpu0.fetch.Cycles                   1486500359                       # Number of cycles fetch has run and was not squashing or blocked
system.cpu0.fetch.IcacheSquashes             12901384                       # Number of outstanding Icache misses that were squashed
system.cpu0.fetch.IcacheWaitRetryStallCycles          130                       # Number of stall cycles due to full MSHR
system.cpu0.fetch.Insts                    1579867357                       # Number of instructions fetch has processed
system.cpu0.fetch.MiscStallCycles                  58                       # Number of cycles fetch has spent waiting on interrupts, or bad addresses, or out of MSHRs
system.cpu0.fetch.PendingTrapStallCycles          107                       # Number of stall cycles due to pending traps
system.cpu0.fetch.SquashCycles               64605574                       # Number of cycles fetch has spent squashing
system.cpu0.fetch.branchRate                 0.148609                       # Number of branch fetches per cycle
system.cpu0.fetch.icacheStallCycles         823944004                       # Number of cycles fetch is stalled on an Icache miss
system.cpu0.fetch.predictedBranches         225001265                       # Number of branches that fetch has predicted taken
system.cpu0.fetch.rate                       0.622578                       # Number of inst fetches per cycle
system.cpu0.fetch.rateDist::samples        2342747445                       # Number of instructions fetched each cycle (Total)
system.cpu0.fetch.rateDist::mean             0.676784                       # Number of instructions fetched each cycle (Total)
system.cpu0.fetch.rateDist::stdev            0.925510                       # Number of instructions fetched each cycle (Total)
system.cpu0.fetch.rateDist::underflows              0      0.00%      0.00% # Number of instructions fetched each cycle (Total)
system.cpu0.fetch.rateDist::0              1239601429     52.91%     52.91% # Number of instructions fetched each cycle (Total)
system.cpu0.fetch.rateDist::1               808600464     34.52%     87.43% # Number of instructions fetched each cycle (Total)
system.cpu0.fetch.rateDist::2               152112278      6.49%     93.92% # Number of instructions fetched each cycle (Total)
system.cpu0.fetch.rateDist::3               113819075      4.86%     98.78% # Number of instructions fetched each cycle (Total)
system.cpu0.fetch.rateDist::4                20194185      0.86%     99.64% # Number of instructions fetched each cycle (Total)
system.cpu0.fetch.rateDist::5                 4255085      0.18%     99.82% # Number of instructions fetched each cycle (Total)
system.cpu0.fetch.rateDist::6                 2059464      0.09%     99.91% # Number of instructions fetched each cycle (Total)
system.cpu0.fetch.rateDist::7                     428      0.00%     99.91% # Number of instructions fetched each cycle (Total)
system.cpu0.fetch.rateDist::8                 2105037      0.09%    100.00% # Number of instructions fetched each cycle (Total)
system.cpu0.fetch.rateDist::overflows               0      0.00%    100.00% # Number of instructions fetched each cycle (Total)
system.cpu0.fetch.rateDist::min_value               0                       # Number of instructions fetched each cycle (Total)
system.cpu0.fetch.rateDist::max_value               8                       # Number of instructions fetched each cycle (Total)
system.cpu0.fetch.rateDist::total          2342747445                       # Number of instructions fetched each cycle (Total)
system.cpu0.fp_regfile_reads                       44                       # number of floating regfile reads
system.cpu0.fp_regfile_writes                      24                       # number of floating regfile writes
system.cpu0.idleCycles                      194873366                       # Total number of cycles that the CPU has spent unscheduled due to idling
system.cpu0.iew.branchMispredicts            16221881                       # Number of branch mispredicts detected at execute
system.cpu0.iew.exec_branches               348347733                       # Number of branches executed
system.cpu0.iew.exec_nop                            0                       # number of nop insts executed
system.cpu0.iew.exec_rate                    0.569113                       # Inst execution rate
system.cpu0.iew.exec_refs                   637918264                       # number of memory reference insts executed
system.cpu0.iew.exec_stores                 167837408                       # Number of stores executed
system.cpu0.iew.exec_swp                            0                       # number of swp insts executed
system.cpu0.iew.iewBlockCycles              353086364                       # Number of cycles IEW is blocking
system.cpu0.iew.iewDispLoadInsts            477186172                       # Number of dispatched load instructions
system.cpu0.iew.iewDispNonSpecInsts           4165938                       # Number of dispatched non-speculative instructions
system.cpu0.iew.iewDispSquashedInsts          8680965                       # Number of squashed instructions skipped by dispatch
system.cpu0.iew.iewDispStoreInsts           172755988                       # Number of dispatched store instructions
system.cpu0.iew.iewDispatchedInsts         1485815364                       # Number of instructions dispatched to IQ
system.cpu0.iew.iewExecLoadInsts            470080856                       # Number of load instructions executed
system.cpu0.iew.iewExecSquashedInsts         10642024                       # Number of squashed instructions skipped in execute
system.cpu0.iew.iewExecutedInsts           1444193537                       # Number of executed instructions
system.cpu0.iew.iewIQFullEvents               2167926                       # Number of times the IQ has become full, causing a stall
system.cpu0.iew.iewIdleCycles                       0                       # Number of cycles IEW is idle
system.cpu0.iew.iewLSQFullEvents              9029453                       # Number of times the LSQ has become full, causing a stall
system.cpu0.iew.iewSquashCycles              16106700                       # Number of cycles IEW is squashing
system.cpu0.iew.iewUnblockCycles             13711997                       # Number of cycles IEW is unblocking
system.cpu0.iew.lsq.thread0.blockedLoads            0                       # Number of blocked loads due to partial load-store forwarding
system.cpu0.iew.lsq.thread0.cacheBlocked       246143                       # Number of times an access to memory failed due to the cache being blocked
system.cpu0.iew.lsq.thread0.forwLoads        27008022                       # Number of loads that had data forwarded from stores
system.cpu0.iew.lsq.thread0.ignoredResponses        65185                       # Number of memory responses ignored because the instruction is squashed
system.cpu0.iew.lsq.thread0.invAddrLoads            0                       # Number of loads ignored due to an invalid address
system.cpu0.iew.lsq.thread0.invAddrSwpfs            0                       # Number of software prefetches ignored due to an invalid address
system.cpu0.iew.lsq.thread0.memOrderViolation         9760                       # Number of memory ordering violations
system.cpu0.iew.lsq.thread0.rescheduledLoads      8449143                       # Number of loads that were rescheduled
system.cpu0.iew.lsq.thread0.squashedLoads     72014500                       # Number of loads squashed
system.cpu0.iew.lsq.thread0.squashedStores     19469875                       # Number of stores squashed
system.cpu0.iew.memOrderViolationEvents          9760                       # Number of memory order violations
system.cpu0.iew.predictedNotTakenIncorrect       749752                       # Number of branches that were predicted not taken incorrectly
system.cpu0.iew.predictedTakenIncorrect      15472129                       # Number of branches that were predicted taken incorrectly
system.cpu0.iew.wb_consumers                663970543                       # num instructions consuming a value
system.cpu0.iew.wb_count                   1428276792                       # cumulative count of insts written-back
system.cpu0.iew.wb_fanout                    0.836021                       # average fanout of values written-back
system.cpu0.iew.wb_producers                555093166                       # num instructions producing a value
system.cpu0.iew.wb_rate                      0.562841                       # insts written-back per cycle
system.cpu0.iew.wb_sent                    1428395207                       # cumulative count of insts sent to commit
system.cpu0.int_regfile_reads              1767322098                       # number of integer regfile reads
system.cpu0.int_regfile_writes              923783910                       # number of integer regfile writes
system.cpu0.ipc                              0.518819                       # IPC: Instructions Per Cycle
system.cpu0.ipc_total                        0.518819                       # IPC: Total IPC of All Threads
system.cpu0.iq.FU_type_0::No_OpClass          4205617      0.29%      0.29% # Type of FU issued
system.cpu0.iq.FU_type_0::IntAlu            797728546     54.83%     55.12% # Type of FU issued
system.cpu0.iq.FU_type_0::IntMult            11848467      0.81%     55.94% # Type of FU issued
system.cpu0.iq.FU_type_0::IntDiv              2100482      0.14%     56.08% # Type of FU issued
system.cpu0.iq.FU_type_0::FloatAdd                  0      0.00%     56.08% # Type of FU issued
system.cpu0.iq.FU_type_0::FloatCmp                  4      0.00%     56.08% # Type of FU issued
system.cpu0.iq.FU_type_0::FloatCvt                 12      0.00%     56.08% # Type of FU issued
system.cpu0.iq.FU_type_0::FloatMult                 0      0.00%     56.08% # Type of FU issued
system.cpu0.iq.FU_type_0::FloatMultAcc              0      0.00%     56.08% # Type of FU issued
system.cpu0.iq.FU_type_0::FloatDiv                  2      0.00%     56.08% # Type of FU issued
system.cpu0.iq.FU_type_0::FloatMisc                 4      0.00%     56.08% # Type of FU issued
system.cpu0.iq.FU_type_0::FloatSqrt                 0      0.00%     56.08% # Type of FU issued
system.cpu0.iq.FU_type_0::SimdAdd                   0      0.00%     56.08% # Type of FU issued
system.cpu0.iq.FU_type_0::SimdAddAcc                0      0.00%     56.08% # Type of FU issued
system.cpu0.iq.FU_type_0::SimdAlu                   0      0.00%     56.08% # Type of FU issued
system.cpu0.iq.FU_type_0::SimdCmp                   0      0.00%     56.08% # Type of FU issued
system.cpu0.iq.FU_type_0::SimdCvt                   0      0.00%     56.08% # Type of FU issued
system.cpu0.iq.FU_type_0::SimdMisc                  0      0.00%     56.08% # Type of FU issued
system.cpu0.iq.FU_type_0::SimdMult                  0      0.00%     56.08% # Type of FU issued
system.cpu0.iq.FU_type_0::SimdMultAcc               0      0.00%     56.08% # Type of FU issued
system.cpu0.iq.FU_type_0::SimdShift                 0      0.00%     56.08% # Type of FU issued
system.cpu0.iq.FU_type_0::SimdShiftAcc              0      0.00%     56.08% # Type of FU issued
system.cpu0.iq.FU_type_0::SimdDiv                   0      0.00%     56.08% # Type of FU issued
system.cpu0.iq.FU_type_0::SimdSqrt                  0      0.00%     56.08% # Type of FU issued
system.cpu0.iq.FU_type_0::SimdFloatAdd              0      0.00%     56.08% # Type of FU issued
system.cpu0.iq.FU_type_0::SimdFloatAlu              0      0.00%     56.08% # Type of FU issued
system.cpu0.iq.FU_type_0::SimdFloatCmp              0      0.00%     56.08% # Type of FU issued
system.cpu0.iq.FU_type_0::SimdFloatCvt              0      0.00%     56.08% # Type of FU issued
system.cpu0.iq.FU_type_0::SimdFloatDiv              0      0.00%     56.08% # Type of FU issued
system.cpu0.iq.FU_type_0::SimdFloatMisc             0      0.00%     56.08% # Type of FU issued
system.cpu0.iq.FU_type_0::SimdFloatMult             0      0.00%     56.08% # Type of FU issued
system.cpu0.iq.FU_type_0::SimdFloatMultAcc            0      0.00%     56.08% # Type of FU issued
system.cpu0.iq.FU_type_0::SimdFloatSqrt             0      0.00%     56.08% # Type of FU issued
system.cpu0.iq.FU_type_0::SimdReduceAdd             0      0.00%     56.08% # Type of FU issued
system.cpu0.iq.FU_type_0::SimdReduceAlu             0      0.00%     56.08% # Type of FU issued
system.cpu0.iq.FU_type_0::SimdReduceCmp             0      0.00%     56.08% # Type of FU issued
system.cpu0.iq.FU_type_0::SimdFloatReduceAdd            0      0.00%     56.08% # Type of FU issued
system.cpu0.iq.FU_type_0::SimdFloatReduceCmp            0      0.00%     56.08% # Type of FU issued
system.cpu0.iq.FU_type_0::SimdAes                   0      0.00%     56.08% # Type of FU issued
system.cpu0.iq.FU_type_0::SimdAesMix                0      0.00%     56.08% # Type of FU issued
system.cpu0.iq.FU_type_0::SimdSha1Hash              0      0.00%     56.08% # Type of FU issued
system.cpu0.iq.FU_type_0::SimdSha1Hash2             0      0.00%     56.08% # Type of FU issued
system.cpu0.iq.FU_type_0::SimdSha256Hash            0      0.00%     56.08% # Type of FU issued
system.cpu0.iq.FU_type_0::SimdSha256Hash2            0      0.00%     56.08% # Type of FU issued
system.cpu0.iq.FU_type_0::SimdShaSigma2             0      0.00%     56.08% # Type of FU issued
system.cpu0.iq.FU_type_0::SimdShaSigma3             0      0.00%     56.08% # Type of FU issued
system.cpu0.iq.FU_type_0::SimdPredAlu               0      0.00%     56.08% # Type of FU issued
system.cpu0.iq.FU_type_0::MemRead           472973233     32.51%     88.59% # Type of FU issued
system.cpu0.iq.FU_type_0::MemWrite          165979164     11.41%    100.00% # Type of FU issued
system.cpu0.iq.FU_type_0::FloatMemRead             10      0.00%    100.00% # Type of FU issued
system.cpu0.iq.FU_type_0::FloatMemWrite            20      0.00%    100.00% # Type of FU issued
system.cpu0.iq.FU_type_0::IprAccess                 0      0.00%    100.00% # Type of FU issued
system.cpu0.iq.FU_type_0::InstPrefetch              0      0.00%    100.00% # Type of FU issued
system.cpu0.iq.FU_type_0::total            1454835561                       # Type of FU issued
system.cpu0.iq.fp_alu_accesses                     56                       # Number of floating point alu accesses
system.cpu0.iq.fp_inst_queue_reads                108                       # Number of floating instruction queue reads
system.cpu0.iq.fp_inst_queue_wakeup_accesses           52                       # Number of floating instruction queue wakeup accesses
system.cpu0.iq.fp_inst_queue_writes                54                       # Number of floating instruction queue writes
system.cpu0.iq.fu_busy_cnt                    3117882                       # FU busy when requested
system.cpu0.iq.fu_busy_rate                  0.002143                       # FU busy rate (busy events/executed inst)
system.cpu0.iq.fu_full::No_OpClass                  0      0.00%      0.00% # attempts to use FU when none available
system.cpu0.iq.fu_full::IntAlu                 596032     19.12%     19.12% # attempts to use FU when none available
system.cpu0.iq.fu_full::IntMult                     1      0.00%     19.12% # attempts to use FU when none available
system.cpu0.iq.fu_full::IntDiv                      0      0.00%     19.12% # attempts to use FU when none available
system.cpu0.iq.fu_full::FloatAdd                    0      0.00%     19.12% # attempts to use FU when none available
system.cpu0.iq.fu_full::FloatCmp                    0      0.00%     19.12% # attempts to use FU when none available
system.cpu0.iq.fu_full::FloatCvt                    0      0.00%     19.12% # attempts to use FU when none available
system.cpu0.iq.fu_full::FloatMult                   0      0.00%     19.12% # attempts to use FU when none available
system.cpu0.iq.fu_full::FloatMultAcc                0      0.00%     19.12% # attempts to use FU when none available
system.cpu0.iq.fu_full::FloatDiv                    0      0.00%     19.12% # attempts to use FU when none available
system.cpu0.iq.fu_full::FloatMisc                   0      0.00%     19.12% # attempts to use FU when none available
system.cpu0.iq.fu_full::FloatSqrt                   0      0.00%     19.12% # attempts to use FU when none available
system.cpu0.iq.fu_full::SimdAdd                     0      0.00%     19.12% # attempts to use FU when none available
system.cpu0.iq.fu_full::SimdAddAcc                  0      0.00%     19.12% # attempts to use FU when none available
system.cpu0.iq.fu_full::SimdAlu                     0      0.00%     19.12% # attempts to use FU when none available
system.cpu0.iq.fu_full::SimdCmp                     0      0.00%     19.12% # attempts to use FU when none available
system.cpu0.iq.fu_full::SimdCvt                     0      0.00%     19.12% # attempts to use FU when none available
system.cpu0.iq.fu_full::SimdMisc                    0      0.00%     19.12% # attempts to use FU when none available
system.cpu0.iq.fu_full::SimdMult                    0      0.00%     19.12% # attempts to use FU when none available
system.cpu0.iq.fu_full::SimdMultAcc                 0      0.00%     19.12% # attempts to use FU when none available
system.cpu0.iq.fu_full::SimdShift                   0      0.00%     19.12% # attempts to use FU when none available
system.cpu0.iq.fu_full::SimdShiftAcc                0      0.00%     19.12% # attempts to use FU when none available
system.cpu0.iq.fu_full::SimdDiv                     0      0.00%     19.12% # attempts to use FU when none available
system.cpu0.iq.fu_full::SimdSqrt                    0      0.00%     19.12% # attempts to use FU when none available
system.cpu0.iq.fu_full::SimdFloatAdd                0      0.00%     19.12% # attempts to use FU when none available
system.cpu0.iq.fu_full::SimdFloatAlu                0      0.00%     19.12% # attempts to use FU when none available
system.cpu0.iq.fu_full::SimdFloatCmp                0      0.00%     19.12% # attempts to use FU when none available
system.cpu0.iq.fu_full::SimdFloatCvt                0      0.00%     19.12% # attempts to use FU when none available
system.cpu0.iq.fu_full::SimdFloatDiv                0      0.00%     19.12% # attempts to use FU when none available
system.cpu0.iq.fu_full::SimdFloatMisc               0      0.00%     19.12% # attempts to use FU when none available
system.cpu0.iq.fu_full::SimdFloatMult               0      0.00%     19.12% # attempts to use FU when none available
system.cpu0.iq.fu_full::SimdFloatMultAcc            0      0.00%     19.12% # attempts to use FU when none available
system.cpu0.iq.fu_full::SimdFloatSqrt               0      0.00%     19.12% # attempts to use FU when none available
system.cpu0.iq.fu_full::SimdReduceAdd               0      0.00%     19.12% # attempts to use FU when none available
system.cpu0.iq.fu_full::SimdReduceAlu               0      0.00%     19.12% # attempts to use FU when none available
system.cpu0.iq.fu_full::SimdReduceCmp               0      0.00%     19.12% # attempts to use FU when none available
system.cpu0.iq.fu_full::SimdFloatReduceAdd            0      0.00%     19.12% # attempts to use FU when none available
system.cpu0.iq.fu_full::SimdFloatReduceCmp            0      0.00%     19.12% # attempts to use FU when none available
system.cpu0.iq.fu_full::SimdAes                     0      0.00%     19.12% # attempts to use FU when none available
system.cpu0.iq.fu_full::SimdAesMix                  0      0.00%     19.12% # attempts to use FU when none available
system.cpu0.iq.fu_full::SimdSha1Hash                0      0.00%     19.12% # attempts to use FU when none available
system.cpu0.iq.fu_full::SimdSha1Hash2               0      0.00%     19.12% # attempts to use FU when none available
system.cpu0.iq.fu_full::SimdSha256Hash              0      0.00%     19.12% # attempts to use FU when none available
system.cpu0.iq.fu_full::SimdSha256Hash2             0      0.00%     19.12% # attempts to use FU when none available
system.cpu0.iq.fu_full::SimdShaSigma2               0      0.00%     19.12% # attempts to use FU when none available
system.cpu0.iq.fu_full::SimdShaSigma3               0      0.00%     19.12% # attempts to use FU when none available
system.cpu0.iq.fu_full::SimdPredAlu                 0      0.00%     19.12% # attempts to use FU when none available
system.cpu0.iq.fu_full::MemRead               2013804     64.59%     83.71% # attempts to use FU when none available
system.cpu0.iq.fu_full::MemWrite               508041     16.29%    100.00% # attempts to use FU when none available
system.cpu0.iq.fu_full::FloatMemRead                0      0.00%    100.00% # attempts to use FU when none available
system.cpu0.iq.fu_full::FloatMemWrite               4      0.00%    100.00% # attempts to use FU when none available
system.cpu0.iq.fu_full::IprAccess                   0      0.00%    100.00% # attempts to use FU when none available
system.cpu0.iq.fu_full::InstPrefetch                0      0.00%    100.00% # attempts to use FU when none available
system.cpu0.iq.int_alu_accesses            1453747770                       # Number of integer alu accesses
system.cpu0.iq.int_inst_queue_reads        5255741668                       # Number of integer instruction queue reads
system.cpu0.iq.int_inst_queue_wakeup_accesses   1428276740                       # Number of integer instruction queue wakeup accesses
system.cpu0.iq.int_inst_queue_writes       1652971731                       # Number of integer instruction queue writes
system.cpu0.iq.iqInstsAdded                1473326042                       # Number of instructions added to the IQ (excludes non-spec)
system.cpu0.iq.iqInstsIssued               1454835561                       # Number of instructions issued
system.cpu0.iq.iqNonSpecInstsAdded           12489322                       # Number of non-speculative instructions added to the IQ
system.cpu0.iq.iqSquashedInstsExamined      167147021                       # Number of squashed instructions iterated over during squash; mainly for profiling
system.cpu0.iq.iqSquashedInstsIssued           205327                       # Number of squashed instructions issued
system.cpu0.iq.iqSquashedNonSpecRemoved       6179571                       # Number of squashed non-spec instructions that were removed
system.cpu0.iq.iqSquashedOperandsExamined     52731679                       # Number of squashed operands that are examined and possibly removed from graph
system.cpu0.iq.issued_per_cycle::samples   2342747445                       # Number of insts issued each cycle
system.cpu0.iq.issued_per_cycle::mean        0.620995                       # Number of insts issued each cycle
system.cpu0.iq.issued_per_cycle::stdev       0.863487                       # Number of insts issued each cycle
system.cpu0.iq.issued_per_cycle::underflows            0      0.00%      0.00% # Number of insts issued each cycle
system.cpu0.iq.issued_per_cycle::0         1328393585     56.70%     56.70% # Number of insts issued each cycle
system.cpu0.iq.issued_per_cycle::1          694946618     29.66%     86.37% # Number of insts issued each cycle
system.cpu0.iq.issued_per_cycle::2          224142352      9.57%     95.93% # Number of insts issued each cycle
system.cpu0.iq.issued_per_cycle::3           75810835      3.24%     99.17% # Number of insts issued each cycle
system.cpu0.iq.issued_per_cycle::4           15972865      0.68%     99.85% # Number of insts issued each cycle
system.cpu0.iq.issued_per_cycle::5            1440800      0.06%     99.91% # Number of insts issued each cycle
system.cpu0.iq.issued_per_cycle::6            1470651      0.06%     99.98% # Number of insts issued each cycle
system.cpu0.iq.issued_per_cycle::7             305544      0.01%     99.99% # Number of insts issued each cycle
system.cpu0.iq.issued_per_cycle::8             264195      0.01%    100.00% # Number of insts issued each cycle
system.cpu0.iq.issued_per_cycle::overflows            0      0.00%    100.00% # Number of insts issued each cycle
system.cpu0.iq.issued_per_cycle::min_value            0                       # Number of insts issued each cycle
system.cpu0.iq.issued_per_cycle::max_value            8                       # Number of insts issued each cycle
system.cpu0.iq.issued_per_cycle::total     2342747445                       # Number of insts issued each cycle
system.cpu0.iq.rate                          0.573307                       # Inst issue rate
system.cpu0.iq.vec_alu_accesses                     0                       # Number of vector alu accesses
system.cpu0.iq.vec_inst_queue_reads                 0                       # Number of vector instruction queue reads
system.cpu0.iq.vec_inst_queue_wakeup_accesses            0                       # Number of vector instruction queue wakeup accesses
system.cpu0.iq.vec_inst_queue_writes                0                       # Number of vector instruction queue writes
system.cpu0.itb.accesses                            0                       # DTB accesses
system.cpu0.itb.hits                                0                       # DTB hits
system.cpu0.itb.misses                              0                       # DTB misses
system.cpu0.itb.read_accesses                       0                       # DTB read accesses
system.cpu0.itb.read_hits                           0                       # DTB read hits
system.cpu0.itb.read_misses                         0                       # DTB read misses
system.cpu0.itb.write_accesses                      0                       # DTB write accesses
system.cpu0.itb.write_hits                          0                       # DTB write hits
system.cpu0.itb.write_misses                        0                       # DTB write misses
system.cpu0.memDep0.conflictingLoads         29117630                       # Number of conflicting loads.
system.cpu0.memDep0.conflictingStores         5451702                       # Number of conflicting stores.
system.cpu0.memDep0.insertedLoads           477186172                       # Number of loads inserted to the mem dependence unit.
system.cpu0.memDep0.insertedStores          172755988                       # Number of stores inserted to the mem dependence unit.
system.cpu0.misc_regfile_reads                   1896                       # number of misc regfile reads
system.cpu0.misc_regfile_writes                    22                       # number of misc regfile writes
system.cpu0.numCycles                      2537620811                       # number of cpu cycles simulated
system.cpu0.numWorkItemsCompleted                   0                       # number of work items this cpu completed
system.cpu0.numWorkItemsStarted                     0                       # number of work items this cpu started
system.cpu0.quiesceCycles                     5690453                       # Total number of cycles that CPU has spent quiesced or waiting for an interrupt
system.cpu0.rename.BlockCycles              378941822                       # Number of cycles rename is blocking
system.cpu0.rename.CommittedMaps            845208198                       # Number of HB maps that are committed
system.cpu0.rename.IQFullEvents              12785686                       # Number of times rename has blocked due to IQ full
system.cpu0.rename.IdleCycles               864116162                       # Number of cycles rename is idle
system.cpu0.rename.LQFullEvents              17615446                       # Number of times rename has blocked due to LQ full
system.cpu0.rename.ROBFullEvents                26875                       # Number of times rename has blocked due to ROB full
system.cpu0.rename.RenameLookups           1844192056                       # Number of register rename lookups that rename has made
system.cpu0.rename.RenamedInsts            1510636040                       # Number of instructions processed by rename
system.cpu0.rename.RenamedOperands          988609268                       # Number of destination operands rename has renamed
system.cpu0.rename.RunCycles               1024806956                       # Number of cycles rename is running
system.cpu0.rename.SQFullEvents              27122400                       # Number of times rename has blocked due to SQ full
system.cpu0.rename.SquashCycles              16106700                       # Number of cycles rename is squashing
system.cpu0.rename.UnblockCycles             58616491                       # Number of cycles rename is unblocking
system.cpu0.rename.UndoneMaps               143401066                       # Number of HB maps that are undone due to squashing
system.cpu0.rename.fp_rename_lookups               44                       # Number of floating rename lookups
system.cpu0.rename.int_rename_lookups      1844192012                       # Number of integer rename lookups
system.cpu0.rename.serializeStallCycles        159314                       # count of cycles rename stalled for serializing inst
system.cpu0.rename.serializingInsts              5851                       # count of serializing insts renamed
system.cpu0.rename.skidInsts                 30208033                       # count of insts added to the skid buffer
system.cpu0.rename.tempSerializingInsts          5836                       # count of temporary serializing insts renamed
system.cpu0.rob.rob_reads                  3751978187                       # The number of ROB reads
system.cpu0.rob.rob_writes                 3007263324                       # The number of ROB writes
system.cpu0.timesIdled                       23349993                       # Number of times that the entire CPU went into an idle state and unscheduled itself
system.cpu0.workload.numSyscalls                 1863                       # Number of system calls
system.cpu1.branchPred.BTBCorrect                   0                       # Number of correct BTB predictions (this stat may not work properly.
system.cpu1.branchPred.BTBHitPct            90.638064                       # BTB Hit Percentage
system.cpu1.branchPred.BTBHits               20442479                       # Number of BTB hits
system.cpu1.branchPred.BTBLookups            22553967                       # Number of BTB lookups
system.cpu1.branchPred.RASInCorrect                 0                       # Number of incorrect RAS predictions.
system.cpu1.branchPred.condIncorrect          2781860                       # Number of conditional branches incorrect
system.cpu1.branchPred.condPredicted         30033701                       # Number of conditional branches predicted
system.cpu1.branchPred.indirectHits           1069542                       # Number of indirect target hits.
system.cpu1.branchPred.indirectLookups        1081034                       # Number of indirect predictor lookups.
system.cpu1.branchPred.indirectMisses           11492                       # Number of indirect misses.
system.cpu1.branchPred.lookups               34596321                       # Number of BP lookups
system.cpu1.branchPred.usedRAS                      0                       # Number of times the RAS was used to get a target.
system.cpu1.branchPredindirectMispredicted        47551                       # Number of mispredicted indirect branches.
system.cpu1.commit.amos                       2099999                       # Number of atomic instructions committed
system.cpu1.commit.branchMispredicts          1976209                       # The number of times a branch was mispredicted
system.cpu1.commit.branches                  28119155                       # Number of branches committed
system.cpu1.commit.bw_lim_events              3552985                       # number cycles where commit BW limit reached
system.cpu1.commit.commitNonSpecStalls        6300687                       # The number of times commit has been forced to stall to communicate backwards
system.cpu1.commit.commitSquashedInsts       14921230                       # The number of squashed insts skipped by commit
system.cpu1.commit.committedInsts           120065130                       # Number of instructions committed
system.cpu1.commit.committedOps             122165313                       # Number of ops (including micro ops) committed
system.cpu1.commit.committed_per_cycle::samples    471005769                       # Number of insts commited each cycle
system.cpu1.commit.committed_per_cycle::mean     0.259371                       # Number of insts commited each cycle
system.cpu1.commit.committed_per_cycle::stdev     1.005397                       # Number of insts commited each cycle
system.cpu1.commit.committed_per_cycle::underflows            0      0.00%      0.00% # Number of insts commited each cycle
system.cpu1.commit.committed_per_cycle::0    419773587     89.12%     89.12% # Number of insts commited each cycle
system.cpu1.commit.committed_per_cycle::1     26092340      5.54%     94.66% # Number of insts commited each cycle
system.cpu1.commit.committed_per_cycle::2      9252167      1.96%     96.63% # Number of insts commited each cycle
system.cpu1.commit.committed_per_cycle::3      7012324      1.49%     98.12% # Number of insts commited each cycle
system.cpu1.commit.committed_per_cycle::4      1753521      0.37%     98.49% # Number of insts commited each cycle
system.cpu1.commit.committed_per_cycle::5       902012      0.19%     98.68% # Number of insts commited each cycle
system.cpu1.commit.committed_per_cycle::6      2084188      0.44%     99.12% # Number of insts commited each cycle
system.cpu1.commit.committed_per_cycle::7       582645      0.12%     99.25% # Number of insts commited each cycle
system.cpu1.commit.committed_per_cycle::8      3552985      0.75%    100.00% # Number of insts commited each cycle
system.cpu1.commit.committed_per_cycle::overflows            0      0.00%    100.00% # Number of insts commited each cycle
system.cpu1.commit.committed_per_cycle::min_value            0                       # Number of insts commited each cycle
system.cpu1.commit.committed_per_cycle::max_value            8                       # Number of insts commited each cycle
system.cpu1.commit.committed_per_cycle::total    471005769                       # Number of insts commited each cycle
system.cpu1.commit.fp_insts                        12                       # Number of committed floating point instructions.
system.cpu1.commit.function_calls             1797969                       # Number of function calls committed.
system.cpu1.commit.int_insts                116602452                       # Number of committed integer instructions.
system.cpu1.commit.loads                     30175862                       # Number of loads committed
system.cpu1.commit.membars                    4200127                       # Number of memory barriers committed
system.cpu1.commit.op_class_0::No_OpClass      4200127      3.44%      3.44% # Class of committed instruction
system.cpu1.commit.op_class_0::IntAlu        76667596     62.76%     66.20% # Class of committed instruction
system.cpu1.commit.op_class_0::IntMult             44      0.00%     66.20% # Class of committed instruction
system.cpu1.commit.op_class_0::IntDiv              88      0.00%     66.20% # Class of committed instruction
system.cpu1.commit.op_class_0::FloatAdd             0      0.00%     66.20% # Class of committed instruction
system.cpu1.commit.op_class_0::FloatCmp             0      0.00%     66.20% # Class of committed instruction
system.cpu1.commit.op_class_0::FloatCvt             0      0.00%     66.20% # Class of committed instruction
system.cpu1.commit.op_class_0::FloatMult            0      0.00%     66.20% # Class of committed instruction
system.cpu1.commit.op_class_0::FloatMultAcc            0      0.00%     66.20% # Class of committed instruction
system.cpu1.commit.op_class_0::FloatDiv             0      0.00%     66.20% # Class of committed instruction
system.cpu1.commit.op_class_0::FloatMisc            0      0.00%     66.20% # Class of committed instruction
system.cpu1.commit.op_class_0::FloatSqrt            0      0.00%     66.20% # Class of committed instruction
system.cpu1.commit.op_class_0::SimdAdd              0      0.00%     66.20% # Class of committed instruction
system.cpu1.commit.op_class_0::SimdAddAcc            0      0.00%     66.20% # Class of committed instruction
system.cpu1.commit.op_class_0::SimdAlu              0      0.00%     66.20% # Class of committed instruction
system.cpu1.commit.op_class_0::SimdCmp              0      0.00%     66.20% # Class of committed instruction
system.cpu1.commit.op_class_0::SimdCvt              0      0.00%     66.20% # Class of committed instruction
system.cpu1.commit.op_class_0::SimdMisc             0      0.00%     66.20% # Class of committed instruction
system.cpu1.commit.op_class_0::SimdMult             0      0.00%     66.20% # Class of committed instruction
system.cpu1.commit.op_class_0::SimdMultAcc            0      0.00%     66.20% # Class of committed instruction
system.cpu1.commit.op_class_0::SimdShift            0      0.00%     66.20% # Class of committed instruction
system.cpu1.commit.op_class_0::SimdShiftAcc            0      0.00%     66.20% # Class of committed instruction
system.cpu1.commit.op_class_0::SimdDiv              0      0.00%     66.20% # Class of committed instruction
system.cpu1.commit.op_class_0::SimdSqrt             0      0.00%     66.20% # Class of committed instruction
system.cpu1.commit.op_class_0::SimdFloatAdd            0      0.00%     66.20% # Class of committed instruction
system.cpu1.commit.op_class_0::SimdFloatAlu            0      0.00%     66.20% # Class of committed instruction
system.cpu1.commit.op_class_0::SimdFloatCmp            0      0.00%     66.20% # Class of committed instruction
system.cpu1.commit.op_class_0::SimdFloatCvt            0      0.00%     66.20% # Class of committed instruction
system.cpu1.commit.op_class_0::SimdFloatDiv            0      0.00%     66.20% # Class of committed instruction
system.cpu1.commit.op_class_0::SimdFloatMisc            0      0.00%     66.20% # Class of committed instruction
system.cpu1.commit.op_class_0::SimdFloatMult            0      0.00%     66.20% # Class of committed instruction
system.cpu1.commit.op_class_0::SimdFloatMultAcc            0      0.00%     66.20% # Class of committed instruction
system.cpu1.commit.op_class_0::SimdFloatSqrt            0      0.00%     66.20% # Class of committed instruction
system.cpu1.commit.op_class_0::SimdReduceAdd            0      0.00%     66.20% # Class of committed instruction
system.cpu1.commit.op_class_0::SimdReduceAlu            0      0.00%     66.20% # Class of committed instruction
system.cpu1.commit.op_class_0::SimdReduceCmp            0      0.00%     66.20% # Class of committed instruction
system.cpu1.commit.op_class_0::SimdFloatReduceAdd            0      0.00%     66.20% # Class of committed instruction
system.cpu1.commit.op_class_0::SimdFloatReduceCmp            0      0.00%     66.20% # Class of committed instruction
system.cpu1.commit.op_class_0::SimdAes              0      0.00%     66.20% # Class of committed instruction
system.cpu1.commit.op_class_0::SimdAesMix            0      0.00%     66.20% # Class of committed instruction
system.cpu1.commit.op_class_0::SimdSha1Hash            0      0.00%     66.20% # Class of committed instruction
system.cpu1.commit.op_class_0::SimdSha1Hash2            0      0.00%     66.20% # Class of committed instruction
system.cpu1.commit.op_class_0::SimdSha256Hash            0      0.00%     66.20% # Class of committed instruction
system.cpu1.commit.op_class_0::SimdSha256Hash2            0      0.00%     66.20% # Class of committed instruction
system.cpu1.commit.op_class_0::SimdShaSigma2            0      0.00%     66.20% # Class of committed instruction
system.cpu1.commit.op_class_0::SimdShaSigma3            0      0.00%     66.20% # Class of committed instruction
system.cpu1.commit.op_class_0::SimdPredAlu            0      0.00%     66.20% # Class of committed instruction
system.cpu1.commit.op_class_0::MemRead       32275861     26.42%     92.62% # Class of committed instruction
system.cpu1.commit.op_class_0::MemWrite       9021585      7.38%    100.00% # Class of committed instruction
system.cpu1.commit.op_class_0::FloatMemRead            0      0.00%    100.00% # Class of committed instruction
system.cpu1.commit.op_class_0::FloatMemWrite           12      0.00%    100.00% # Class of committed instruction
system.cpu1.commit.op_class_0::IprAccess            0      0.00%    100.00% # Class of committed instruction
system.cpu1.commit.op_class_0::InstPrefetch            0      0.00%    100.00% # Class of committed instruction
system.cpu1.commit.op_class_0::total        122165313                       # Class of committed instruction
system.cpu1.commit.refs                      41297458                       # Number of memory references committed
system.cpu1.commit.swp_count                        0                       # Number of s/w prefetches committed
system.cpu1.commit.vec_insts                        0                       # Number of committed Vector instructions.
system.cpu1.committedInsts                  120065130                       # Number of Instructions Simulated
system.cpu1.committedOps                    122165313                       # Number of Ops (including micro ops) Simulated
system.cpu1.cpi                              3.968850                       # CPI: Cycles Per Instruction
system.cpu1.cpi_total                        3.968850                       # CPI: Total CPI of All Threads
system.cpu1.decode.BlockedCycles            374407988                       # Number of cycles decode is blocked
system.cpu1.decode.BranchMispred               851927                       # Number of times decode detected a branch misprediction
system.cpu1.decode.BranchResolved            19472631                       # Number of times decode resolved a branch
system.cpu1.decode.DecodedInsts             143685966                       # Number of instructions handled by decode
system.cpu1.decode.IdleCycles                26706392                       # Number of cycles decode is idle
system.cpu1.decode.RunCycles                 65979664                       # Number of cycles decode is running
system.cpu1.decode.SquashCycles               1977563                       # Number of cycles decode is squashing
system.cpu1.decode.SquashedInsts              2090505                       # Number of squashed instructions handled by decode
system.cpu1.decode.UnblockCycles              5151357                       # Number of cycles decode is unblocking
system.cpu1.dtb.accesses                            0                       # DTB accesses
system.cpu1.dtb.hits                                0                       # DTB hits
system.cpu1.dtb.misses                              0                       # DTB misses
system.cpu1.dtb.read_accesses                       0                       # DTB read accesses
system.cpu1.dtb.read_hits                           0                       # DTB read hits
system.cpu1.dtb.read_misses                         0                       # DTB read misses
system.cpu1.dtb.write_accesses                      0                       # DTB write accesses
system.cpu1.dtb.write_hits                          0                       # DTB write hits
system.cpu1.dtb.write_misses                        0                       # DTB write misses
system.cpu1.fetch.Branches                   34596321                       # Number of branches that fetch encountered
system.cpu1.fetch.CacheLines                 25026347                       # Number of cache lines fetched
system.cpu1.fetch.Cycles                    443594214                       # Number of cycles fetch has run and was not squashing or blocked
system.cpu1.fetch.IcacheSquashes               487958                       # Number of outstanding Icache misses that were squashed
system.cpu1.fetch.Insts                     148961741                       # Number of instructions fetch has processed
system.cpu1.fetch.MiscStallCycles                   1                       # Number of cycles fetch has spent waiting on interrupts, or bad addresses, or out of MSHRs
system.cpu1.fetch.SquashCycles                5566428                       # Number of cycles fetch has spent squashing
system.cpu1.fetch.branchRate                 0.072602                       # Number of branch fetches per cycle
system.cpu1.fetch.icacheStallCycles          27845535                       # Number of cycles fetch is stalled on an Icache miss
system.cpu1.fetch.predictedBranches          21512021                       # Number of branches that fetch has predicted taken
system.cpu1.fetch.rate                       0.312603                       # Number of inst fetches per cycle
system.cpu1.fetch.rateDist::samples         474222964                       # Number of instructions fetched each cycle (Total)
system.cpu1.fetch.rateDist::mean             0.318547                       # Number of instructions fetched each cycle (Total)
system.cpu1.fetch.rateDist::stdev            0.738068                       # Number of instructions fetched each cycle (Total)
system.cpu1.fetch.rateDist::underflows              0      0.00%      0.00% # Number of instructions fetched each cycle (Total)
system.cpu1.fetch.rateDist::0               376402940     79.37%     79.37% # Number of instructions fetched each cycle (Total)
system.cpu1.fetch.rateDist::1                63170104     13.32%     92.69% # Number of instructions fetched each cycle (Total)
system.cpu1.fetch.rateDist::2                20039012      4.23%     96.92% # Number of instructions fetched each cycle (Total)
system.cpu1.fetch.rateDist::3                12004823      2.53%     99.45% # Number of instructions fetched each cycle (Total)
system.cpu1.fetch.rateDist::4                 1733233      0.37%     99.82% # Number of instructions fetched each cycle (Total)
system.cpu1.fetch.rateDist::5                  370854      0.08%     99.89% # Number of instructions fetched each cycle (Total)
system.cpu1.fetch.rateDist::6                  501765      0.11%    100.00% # Number of instructions fetched each cycle (Total)
system.cpu1.fetch.rateDist::7                      10      0.00%    100.00% # Number of instructions fetched each cycle (Total)
system.cpu1.fetch.rateDist::8                     223      0.00%    100.00% # Number of instructions fetched each cycle (Total)
system.cpu1.fetch.rateDist::overflows               0      0.00%    100.00% # Number of instructions fetched each cycle (Total)
system.cpu1.fetch.rateDist::min_value               0                       # Number of instructions fetched each cycle (Total)
system.cpu1.fetch.rateDist::max_value               8                       # Number of instructions fetched each cycle (Total)
system.cpu1.fetch.rateDist::total           474222964                       # Number of instructions fetched each cycle (Total)
system.cpu1.fp_regfile_reads                       12                       # number of floating regfile reads
system.cpu1.idleCycles                        2297532                       # Total number of cycles that the CPU has spent unscheduled due to idling
system.cpu1.iew.branchMispredicts             2066915                       # Number of branch mispredicts detected at execute
system.cpu1.iew.exec_branches                30203167                       # Number of branches executed
system.cpu1.iew.exec_nop                            0                       # number of nop insts executed
system.cpu1.iew.exec_rate                    0.277800                       # Inst execution rate
system.cpu1.iew.exec_refs                    45365958                       # number of memory reference insts executed
system.cpu1.iew.exec_stores                  11521649                       # Number of stores executed
system.cpu1.iew.exec_swp                            0                       # number of swp insts executed
system.cpu1.iew.iewBlockCycles              312310696                       # Number of cycles IEW is blocking
system.cpu1.iew.iewDispLoadInsts             34363234                       # Number of dispatched load instructions
system.cpu1.iew.iewDispNonSpecInsts           2100667                       # Number of dispatched non-speculative instructions
system.cpu1.iew.iewDispSquashedInsts          2053031                       # Number of squashed instructions skipped by dispatch
system.cpu1.iew.iewDispStoreInsts            11959317                       # Number of dispatched store instructions
system.cpu1.iew.iewDispatchedInsts          137046616                       # Number of instructions dispatched to IQ
system.cpu1.iew.iewExecLoadInsts             33844309                       # Number of load instructions executed
system.cpu1.iew.iewExecSquashedInsts          1975530                       # Number of squashed instructions skipped in execute
system.cpu1.iew.iewExecutedInsts            132377381                       # Number of executed instructions
system.cpu1.iew.iewIQFullEvents               1689666                       # Number of times the IQ has become full, causing a stall
system.cpu1.iew.iewIdleCycles                       0                       # Number of cycles IEW is idle
system.cpu1.iew.iewLSQFullEvents              6509166                       # Number of times the LSQ has become full, causing a stall
system.cpu1.iew.iewSquashCycles               1977563                       # Number of cycles IEW is squashing
system.cpu1.iew.iewUnblockCycles             10856969                       # Number of cycles IEW is unblocking
system.cpu1.iew.lsq.thread0.blockedLoads            0                       # Number of blocked loads due to partial load-store forwarding
system.cpu1.iew.lsq.thread0.cacheBlocked       102804                       # Number of times an access to memory failed due to the cache being blocked
system.cpu1.iew.lsq.thread0.forwLoads         1062536                       # Number of loads that had data forwarded from stores
system.cpu1.iew.lsq.thread0.ignoredResponses        46353                       # Number of memory responses ignored because the instruction is squashed
system.cpu1.iew.lsq.thread0.invAddrLoads            0                       # Number of loads ignored due to an invalid address
system.cpu1.iew.lsq.thread0.invAddrSwpfs            0                       # Number of software prefetches ignored due to an invalid address
system.cpu1.iew.lsq.thread0.memOrderViolation         1783                       # Number of memory ordering violations
system.cpu1.iew.lsq.thread0.rescheduledLoads        11757                       # Number of loads that were rescheduled
system.cpu1.iew.lsq.thread0.squashedLoads      4187372                       # Number of loads squashed
system.cpu1.iew.lsq.thread0.squashedStores       837721                       # Number of stores squashed
system.cpu1.iew.memOrderViolationEvents          1783                       # Number of memory order violations
system.cpu1.iew.predictedNotTakenIncorrect       531804                       # Number of branches that were predicted not taken incorrectly
system.cpu1.iew.predictedTakenIncorrect       1535111                       # Number of branches that were predicted taken incorrectly
system.cpu1.iew.wb_consumers                 77517280                       # num instructions consuming a value
system.cpu1.iew.wb_count                    130850849                       # cumulative count of insts written-back
system.cpu1.iew.wb_fanout                    0.830140                       # average fanout of values written-back
system.cpu1.iew.wb_producers                 64350159                       # num instructions producing a value
system.cpu1.iew.wb_rate                      0.274596                       # insts written-back per cycle
system.cpu1.iew.wb_sent                     130915618                       # cumulative count of insts sent to commit
system.cpu1.int_regfile_reads               167904846                       # number of integer regfile reads
system.cpu1.int_regfile_writes               88103263                       # number of integer regfile writes
system.cpu1.ipc                              0.251962                       # IPC: Instructions Per Cycle
system.cpu1.ipc_total                        0.251962                       # IPC: Total IPC of All Threads
system.cpu1.iq.FU_type_0::No_OpClass          4200230      3.13%      3.13% # Type of FU issued
system.cpu1.iq.FU_type_0::IntAlu             84213537     62.68%     65.81% # Type of FU issued
system.cpu1.iq.FU_type_0::IntMult                  46      0.00%     65.81% # Type of FU issued
system.cpu1.iq.FU_type_0::IntDiv                   88      0.00%     65.81% # Type of FU issued
system.cpu1.iq.FU_type_0::FloatAdd                  0      0.00%     65.81% # Type of FU issued
system.cpu1.iq.FU_type_0::FloatCmp                  0      0.00%     65.81% # Type of FU issued
system.cpu1.iq.FU_type_0::FloatCvt                  0      0.00%     65.81% # Type of FU issued
system.cpu1.iq.FU_type_0::FloatMult                 0      0.00%     65.81% # Type of FU issued
system.cpu1.iq.FU_type_0::FloatMultAcc              0      0.00%     65.81% # Type of FU issued
system.cpu1.iq.FU_type_0::FloatDiv                  0      0.00%     65.81% # Type of FU issued
system.cpu1.iq.FU_type_0::FloatMisc                 0      0.00%     65.81% # Type of FU issued
system.cpu1.iq.FU_type_0::FloatSqrt                 0      0.00%     65.81% # Type of FU issued
system.cpu1.iq.FU_type_0::SimdAdd                   0      0.00%     65.81% # Type of FU issued
system.cpu1.iq.FU_type_0::SimdAddAcc                0      0.00%     65.81% # Type of FU issued
system.cpu1.iq.FU_type_0::SimdAlu                   0      0.00%     65.81% # Type of FU issued
system.cpu1.iq.FU_type_0::SimdCmp                   0      0.00%     65.81% # Type of FU issued
system.cpu1.iq.FU_type_0::SimdCvt                   0      0.00%     65.81% # Type of FU issued
system.cpu1.iq.FU_type_0::SimdMisc                  0      0.00%     65.81% # Type of FU issued
system.cpu1.iq.FU_type_0::SimdMult                  0      0.00%     65.81% # Type of FU issued
system.cpu1.iq.FU_type_0::SimdMultAcc               0      0.00%     65.81% # Type of FU issued
system.cpu1.iq.FU_type_0::SimdShift                 0      0.00%     65.81% # Type of FU issued
system.cpu1.iq.FU_type_0::SimdShiftAcc              0      0.00%     65.81% # Type of FU issued
system.cpu1.iq.FU_type_0::SimdDiv                   0      0.00%     65.81% # Type of FU issued
system.cpu1.iq.FU_type_0::SimdSqrt                  0      0.00%     65.81% # Type of FU issued
system.cpu1.iq.FU_type_0::SimdFloatAdd              0      0.00%     65.81% # Type of FU issued
system.cpu1.iq.FU_type_0::SimdFloatAlu              0      0.00%     65.81% # Type of FU issued
system.cpu1.iq.FU_type_0::SimdFloatCmp              0      0.00%     65.81% # Type of FU issued
system.cpu1.iq.FU_type_0::SimdFloatCvt              0      0.00%     65.81% # Type of FU issued
system.cpu1.iq.FU_type_0::SimdFloatDiv              0      0.00%     65.81% # Type of FU issued
system.cpu1.iq.FU_type_0::SimdFloatMisc             0      0.00%     65.81% # Type of FU issued
system.cpu1.iq.FU_type_0::SimdFloatMult             0      0.00%     65.81% # Type of FU issued
system.cpu1.iq.FU_type_0::SimdFloatMultAcc            0      0.00%     65.81% # Type of FU issued
system.cpu1.iq.FU_type_0::SimdFloatSqrt             0      0.00%     65.81% # Type of FU issued
system.cpu1.iq.FU_type_0::SimdReduceAdd             0      0.00%     65.81% # Type of FU issued
system.cpu1.iq.FU_type_0::SimdReduceAlu             0      0.00%     65.81% # Type of FU issued
system.cpu1.iq.FU_type_0::SimdReduceCmp             0      0.00%     65.81% # Type of FU issued
system.cpu1.iq.FU_type_0::SimdFloatReduceAdd            0      0.00%     65.81% # Type of FU issued
system.cpu1.iq.FU_type_0::SimdFloatReduceCmp            0      0.00%     65.81% # Type of FU issued
system.cpu1.iq.FU_type_0::SimdAes                   0      0.00%     65.81% # Type of FU issued
system.cpu1.iq.FU_type_0::SimdAesMix                0      0.00%     65.81% # Type of FU issued
system.cpu1.iq.FU_type_0::SimdSha1Hash              0      0.00%     65.81% # Type of FU issued
system.cpu1.iq.FU_type_0::SimdSha1Hash2             0      0.00%     65.81% # Type of FU issued
system.cpu1.iq.FU_type_0::SimdSha256Hash            0      0.00%     65.81% # Type of FU issued
system.cpu1.iq.FU_type_0::SimdSha256Hash2            0      0.00%     65.81% # Type of FU issued
system.cpu1.iq.FU_type_0::SimdShaSigma2             0      0.00%     65.81% # Type of FU issued
system.cpu1.iq.FU_type_0::SimdShaSigma3             0      0.00%     65.81% # Type of FU issued
system.cpu1.iq.FU_type_0::SimdPredAlu               0      0.00%     65.81% # Type of FU issued
system.cpu1.iq.FU_type_0::MemRead            36431637     27.12%     92.92% # Type of FU issued
system.cpu1.iq.FU_type_0::MemWrite            9507361      7.08%    100.00% # Type of FU issued
system.cpu1.iq.FU_type_0::FloatMemRead              0      0.00%    100.00% # Type of FU issued
system.cpu1.iq.FU_type_0::FloatMemWrite            12      0.00%    100.00% # Type of FU issued
system.cpu1.iq.FU_type_0::IprAccess                 0      0.00%    100.00% # Type of FU issued
system.cpu1.iq.FU_type_0::InstPrefetch              0      0.00%    100.00% # Type of FU issued
system.cpu1.iq.FU_type_0::total             134352911                       # Type of FU issued
system.cpu1.iq.fp_alu_accesses                     16                       # Number of floating point alu accesses
system.cpu1.iq.fp_inst_queue_reads                 28                       # Number of floating instruction queue reads
system.cpu1.iq.fp_inst_queue_wakeup_accesses           12                       # Number of floating instruction queue wakeup accesses
system.cpu1.iq.fp_inst_queue_writes                12                       # Number of floating instruction queue writes
system.cpu1.iq.fu_busy_cnt                    2871554                       # FU busy when requested
system.cpu1.iq.fu_busy_rate                  0.021373                       # FU busy rate (busy events/executed inst)
system.cpu1.iq.fu_full::No_OpClass                  0      0.00%      0.00% # attempts to use FU when none available
system.cpu1.iq.fu_full::IntAlu                 570640     19.87%     19.87% # attempts to use FU when none available
system.cpu1.iq.fu_full::IntMult                     0      0.00%     19.87% # attempts to use FU when none available
system.cpu1.iq.fu_full::IntDiv                      0      0.00%     19.87% # attempts to use FU when none available
system.cpu1.iq.fu_full::FloatAdd                    0      0.00%     19.87% # attempts to use FU when none available
system.cpu1.iq.fu_full::FloatCmp                    0      0.00%     19.87% # attempts to use FU when none available
system.cpu1.iq.fu_full::FloatCvt                    0      0.00%     19.87% # attempts to use FU when none available
system.cpu1.iq.fu_full::FloatMult                   0      0.00%     19.87% # attempts to use FU when none available
system.cpu1.iq.fu_full::FloatMultAcc                0      0.00%     19.87% # attempts to use FU when none available
system.cpu1.iq.fu_full::FloatDiv                    0      0.00%     19.87% # attempts to use FU when none available
system.cpu1.iq.fu_full::FloatMisc                   0      0.00%     19.87% # attempts to use FU when none available
system.cpu1.iq.fu_full::FloatSqrt                   0      0.00%     19.87% # attempts to use FU when none available
system.cpu1.iq.fu_full::SimdAdd                     0      0.00%     19.87% # attempts to use FU when none available
system.cpu1.iq.fu_full::SimdAddAcc                  0      0.00%     19.87% # attempts to use FU when none available
system.cpu1.iq.fu_full::SimdAlu                     0      0.00%     19.87% # attempts to use FU when none available
system.cpu1.iq.fu_full::SimdCmp                     0      0.00%     19.87% # attempts to use FU when none available
system.cpu1.iq.fu_full::SimdCvt                     0      0.00%     19.87% # attempts to use FU when none available
system.cpu1.iq.fu_full::SimdMisc                    0      0.00%     19.87% # attempts to use FU when none available
system.cpu1.iq.fu_full::SimdMult                    0      0.00%     19.87% # attempts to use FU when none available
system.cpu1.iq.fu_full::SimdMultAcc                 0      0.00%     19.87% # attempts to use FU when none available
system.cpu1.iq.fu_full::SimdShift                   0      0.00%     19.87% # attempts to use FU when none available
system.cpu1.iq.fu_full::SimdShiftAcc                0      0.00%     19.87% # attempts to use FU when none available
system.cpu1.iq.fu_full::SimdDiv                     0      0.00%     19.87% # attempts to use FU when none available
system.cpu1.iq.fu_full::SimdSqrt                    0      0.00%     19.87% # attempts to use FU when none available
system.cpu1.iq.fu_full::SimdFloatAdd                0      0.00%     19.87% # attempts to use FU when none available
system.cpu1.iq.fu_full::SimdFloatAlu                0      0.00%     19.87% # attempts to use FU when none available
system.cpu1.iq.fu_full::SimdFloatCmp                0      0.00%     19.87% # attempts to use FU when none available
system.cpu1.iq.fu_full::SimdFloatCvt                0      0.00%     19.87% # attempts to use FU when none available
system.cpu1.iq.fu_full::SimdFloatDiv                0      0.00%     19.87% # attempts to use FU when none available
system.cpu1.iq.fu_full::SimdFloatMisc               0      0.00%     19.87% # attempts to use FU when none available
system.cpu1.iq.fu_full::SimdFloatMult               0      0.00%     19.87% # attempts to use FU when none available
system.cpu1.iq.fu_full::SimdFloatMultAcc            0      0.00%     19.87% # attempts to use FU when none available
system.cpu1.iq.fu_full::SimdFloatSqrt               0      0.00%     19.87% # attempts to use FU when none available
system.cpu1.iq.fu_full::SimdReduceAdd               0      0.00%     19.87% # attempts to use FU when none available
system.cpu1.iq.fu_full::SimdReduceAlu               0      0.00%     19.87% # attempts to use FU when none available
system.cpu1.iq.fu_full::SimdReduceCmp               0      0.00%     19.87% # attempts to use FU when none available
system.cpu1.iq.fu_full::SimdFloatReduceAdd            0      0.00%     19.87% # attempts to use FU when none available
system.cpu1.iq.fu_full::SimdFloatReduceCmp            0      0.00%     19.87% # attempts to use FU when none available
system.cpu1.iq.fu_full::SimdAes                     0      0.00%     19.87% # attempts to use FU when none available
system.cpu1.iq.fu_full::SimdAesMix                  0      0.00%     19.87% # attempts to use FU when none available
system.cpu1.iq.fu_full::SimdSha1Hash                0      0.00%     19.87% # attempts to use FU when none available
system.cpu1.iq.fu_full::SimdSha1Hash2               0      0.00%     19.87% # attempts to use FU when none available
system.cpu1.iq.fu_full::SimdSha256Hash              0      0.00%     19.87% # attempts to use FU when none available
system.cpu1.iq.fu_full::SimdSha256Hash2             0      0.00%     19.87% # attempts to use FU when none available
system.cpu1.iq.fu_full::SimdShaSigma2               0      0.00%     19.87% # attempts to use FU when none available
system.cpu1.iq.fu_full::SimdShaSigma3               0      0.00%     19.87% # attempts to use FU when none available
system.cpu1.iq.fu_full::SimdPredAlu                 0      0.00%     19.87% # attempts to use FU when none available
system.cpu1.iq.fu_full::MemRead               1836373     63.95%     83.82% # attempts to use FU when none available
system.cpu1.iq.fu_full::MemWrite               464537     16.18%    100.00% # attempts to use FU when none available
[...]
system.cpu1.dcache.ReadReq_avg_mshr_miss_latency::total 73778.103603                       # average ReadReq mshr miss latency
system.cpu1.dcache.WriteReq_hits::.cpu1.data      2277542                       # number of WriteReq hits
system.cpu1.dcache.WriteReq_hits::total       2277542                       # number of WriteReq hits
system.cpu1.dcache.WriteReq_misses::.cpu1.data      1910625                       # number of WriteReq misses
system.cpu1.dcache.WriteReq_misses::total      1910625                       # number of WriteReq misses
system.cpu1.dcache.WriteReq_miss_latency::.cpu1.data 118166003188                       # number of WriteReq miss cycles
system.cpu1.dcache.WriteReq_miss_latency::total 118166003188                       # number of WriteReq miss cycles
system.cpu1.dcache.WriteReq_accesses::.cpu1.data      4188167                       # number of WriteReq accesses(hits+misses)
system.cpu1.dcache.WriteReq_accesses::total      4188167                       # number of WriteReq accesses(hits+misses)
system.cpu1.dcache.WriteReq_miss_rate::.cpu1.data     0.456196                       # miss rate for WriteReq accesses
system.cpu1.dcache.WriteReq_miss_rate::total     0.456196                       # miss rate for WriteReq accesses
system.cpu1.dcache.WriteReq_avg_miss_latency::.cpu1.data 61846.779555                       # average WriteReq miss latency
system.cpu1.dcache.WriteReq_avg_miss_latency::total 61846.779555                       # average WriteReq miss latency
system.cpu1.dcache.WriteReq_mshr_hits::.cpu1.data      1689244                       # number of WriteReq MSHR hits
system.cpu1.dcache.WriteReq_mshr_hits::total      1689244                       # number of WriteReq MSHR hits
system.cpu1.dcache.WriteReq_mshr_misses::.cpu1.data       221381                       # number of WriteReq MSHR misses
system.cpu1.dcache.WriteReq_mshr_misses::total       221381                       # number of WriteReq MSHR misses
system.cpu1.dcache.WriteReq_mshr_miss_latency::.cpu1.data  15702641437                       # number of WriteReq MSHR miss cycles
system.cpu1.dcache.WriteReq_mshr_miss_latency::total  15702641437                       # number of WriteReq MSHR miss cycles
system.cpu1.dcache.WriteReq_mshr_miss_rate::.cpu1.data     0.052859                       # mshr miss rate for WriteReq accesses
system.cpu1.dcache.WriteReq_mshr_miss_rate::total     0.052859                       # mshr miss rate for WriteReq accesses
system.cpu1.dcache.WriteReq_avg_mshr_miss_latency::.cpu1.data 70930.393471                       # average WriteReq mshr miss latency
system.cpu1.dcache.WriteReq_avg_mshr_miss_latency::total 70930.393471                       # average WriteReq mshr miss latency
system.cpu1.dcache.LoadLockedReq_hits::.cpu1.data        35031                       # number of LoadLockedReq hits
system.cpu1.dcache.LoadLockedReq_hits::total        35031                       # number of LoadLockedReq hits
system.cpu1.dcache.LoadLockedReq_misses::.cpu1.data          444                       # number of LoadLockedReq misses
system.cpu1.dcache.LoadLockedReq_misses::total          444                       # number of LoadLockedReq misses
system.cpu1.dcache.LoadLockedReq_miss_latency::.cpu1.data     27576500                       # number of LoadLockedReq miss cycles
system.cpu1.dcache.LoadLockedReq_miss_latency::total     27576500                       # number of LoadLockedReq miss cycles
system.cpu1.dcache.LoadLockedReq_accesses::.cpu1.data        35475                       # number of LoadLockedReq accesses(hits+misses)
system.cpu1.dcache.LoadLockedReq_accesses::total        35475                       # number of LoadLockedReq accesses(hits+misses)
system.cpu1.dcache.LoadLockedReq_miss_rate::.cpu1.data     0.012516                       # miss rate for LoadLockedReq accesses
system.cpu1.dcache.LoadLockedReq_miss_rate::total     0.012516                       # miss rate for LoadLockedReq accesses
system.cpu1.dcache.LoadLockedReq_avg_miss_latency::.cpu1.data 62109.234234                       # average LoadLockedReq miss latency
system.cpu1.dcache.LoadLockedReq_avg_miss_latency::total 62109.234234                       # average LoadLockedReq miss latency
system.cpu1.dcache.LoadLockedReq_mshr_hits::.cpu1.data          208                       # number of LoadLockedReq MSHR hits
system.cpu1.dcache.LoadLockedReq_mshr_hits::total          208                       # number of LoadLockedReq MSHR hits
system.cpu1.dcache.LoadLockedReq_mshr_misses::.cpu1.data          236                       # number of LoadLockedReq MSHR misses
system.cpu1.dcache.LoadLockedReq_mshr_misses::total          236                       # number of LoadLockedReq MSHR misses
system.cpu1.dcache.LoadLockedReq_mshr_miss_latency::.cpu1.data     14979000                       # number of LoadLockedReq MSHR miss cycles
system.cpu1.dcache.LoadLockedReq_mshr_miss_latency::total     14979000                       # number of LoadLockedReq MSHR miss cycles
system.cpu1.dcache.LoadLockedReq_mshr_miss_rate::.cpu1.data     0.006653                       # mshr miss rate for LoadLockedReq accesses
system.cpu1.dcache.LoadLockedReq_mshr_miss_rate::total     0.006653                       # mshr miss rate for LoadLockedReq accesses
system.cpu1.dcache.LoadLockedReq_avg_mshr_miss_latency::.cpu1.data 63470.338983                       # average LoadLockedReq mshr miss latency
system.cpu1.dcache.LoadLockedReq_avg_mshr_miss_latency::total 63470.338983                       # average LoadLockedReq mshr miss latency
system.cpu1.dcache.StoreCondReq_hits::.cpu1.data        34694                       # number of StoreCondReq hits
system.cpu1.dcache.StoreCondReq_hits::total        34694                       # number of StoreCondReq hits
system.cpu1.dcache.StoreCondReq_misses::.cpu1.data          562                       # number of StoreCondReq misses
system.cpu1.dcache.StoreCondReq_misses::total          562                       # number of StoreCondReq misses
system.cpu1.dcache.StoreCondReq_miss_latency::.cpu1.data      3894500                       # number of StoreCondReq miss cycles
system.cpu1.dcache.StoreCondReq_miss_latency::total      3894500                       # number of StoreCondReq miss cycles
system.cpu1.dcache.StoreCondReq_accesses::.cpu1.data        35256                       # number of StoreCondReq accesses(hits+misses)
system.cpu1.dcache.StoreCondReq_accesses::total        35256                       # number of StoreCondReq accesses(hits+misses)
system.cpu1.dcache.StoreCondReq_miss_rate::.cpu1.data     0.015941                       # miss rate for StoreCondReq accesses
system.cpu1.dcache.StoreCondReq_miss_rate::total     0.015941                       # miss rate for StoreCondReq accesses
system.cpu1.dcache.StoreCondReq_avg_miss_latency::.cpu1.data  6929.715302                       # average StoreCondReq miss latency
system.cpu1.dcache.StoreCondReq_avg_miss_latency::total  6929.715302                       # average StoreCondReq miss latency
system.cpu1.dcache.StoreCondReq_mshr_misses::.cpu1.data          560                       # number of StoreCondReq MSHR misses
system.cpu1.dcache.StoreCondReq_mshr_misses::total          560                       # number of StoreCondReq MSHR misses
system.cpu1.dcache.StoreCondReq_mshr_miss_latency::.cpu1.data      3339500                       # number of StoreCondReq MSHR miss cycles
system.cpu1.dcache.StoreCondReq_mshr_miss_latency::total      3339500                       # number of StoreCondReq MSHR miss cycles
system.cpu1.dcache.StoreCondReq_mshr_miss_rate::.cpu1.data     0.015884                       # mshr miss rate for StoreCondReq accesses
system.cpu1.dcache.StoreCondReq_mshr_miss_rate::total     0.015884                       # mshr miss rate for StoreCondReq accesses
system.cpu1.dcache.StoreCondReq_avg_mshr_miss_latency::.cpu1.data  5963.392857                       # average StoreCondReq mshr miss latency
system.cpu1.dcache.StoreCondReq_avg_mshr_miss_latency::total  5963.392857                       # average StoreCondReq mshr miss latency
system.cpu1.dcache.StoreCondFailReq_miss_latency::.cpu1.data        77500                       # number of StoreCondFailReq miss cycles
system.cpu1.dcache.StoreCondFailReq_miss_latency::total        77500                       # number of StoreCondFailReq miss cycles
system.cpu1.dcache.StoreCondFailReq_avg_miss_latency::.cpu1.data          inf                       # average StoreCondFailReq miss latency
system.cpu1.dcache.StoreCondFailReq_avg_miss_latency::total          inf                       # average StoreCondFailReq miss latency
system.cpu1.dcache.StoreCondFailReq_mshr_miss_latency::.cpu1.data        72500                       # number of StoreCondFailReq MSHR miss cycles
system.cpu1.dcache.StoreCondFailReq_mshr_miss_latency::total        72500                       # number of StoreCondFailReq MSHR miss cycles
system.cpu1.dcache.StoreCondFailReq_avg_mshr_miss_latency::.cpu1.data          inf                       # average StoreCondFailReq mshr miss latency
system.cpu1.dcache.StoreCondFailReq_avg_mshr_miss_latency::total          inf                       # average StoreCondFailReq mshr miss latency
system.cpu1.dcache.SwapReq_hits::.cpu1.data          835                       # number of SwapReq hits
system.cpu1.dcache.SwapReq_hits::total            835                       # number of SwapReq hits
system.cpu1.dcache.SwapReq_misses::.cpu1.data          724                       # number of SwapReq misses
system.cpu1.dcache.SwapReq_misses::total          724                       # number of SwapReq misses
system.cpu1.dcache.SwapReq_miss_latency::.cpu1.data      7273500                       # number of SwapReq miss cycles
system.cpu1.dcache.SwapReq_miss_latency::total      7273500                       # number of SwapReq miss cycles
system.cpu1.dcache.SwapReq_accesses::.cpu1.data         1559                       # number of SwapReq accesses(hits+misses)
system.cpu1.dcache.SwapReq_accesses::total         1559                       # number of SwapReq accesses(hits+misses)
system.cpu1.dcache.SwapReq_miss_rate::.cpu1.data     0.464400                       # miss rate for SwapReq accesses
system.cpu1.dcache.SwapReq_miss_rate::total     0.464400                       # miss rate for SwapReq accesses
system.cpu1.dcache.SwapReq_avg_miss_latency::.cpu1.data 10046.270718                       # average SwapReq miss latency
system.cpu1.dcache.SwapReq_avg_miss_latency::total 10046.270718                       # average SwapReq miss latency
system.cpu1.dcache.SwapReq_mshr_misses::.cpu1.data          724                       # number of SwapReq MSHR misses
system.cpu1.dcache.SwapReq_mshr_misses::total          724                       # number of SwapReq MSHR misses
system.cpu1.dcache.SwapReq_mshr_miss_latency::.cpu1.data      6549500                       # number of SwapReq MSHR miss cycles
system.cpu1.dcache.SwapReq_mshr_miss_latency::total      6549500                       # number of SwapReq MSHR miss cycles
system.cpu1.dcache.SwapReq_mshr_miss_rate::.cpu1.data     0.464400                       # mshr miss rate for SwapReq accesses
system.cpu1.dcache.SwapReq_mshr_miss_rate::total     0.464400                       # mshr miss rate for SwapReq accesses
system.cpu1.dcache.SwapReq_avg_mshr_miss_latency::.cpu1.data  9046.270718                       # average SwapReq mshr miss latency
system.cpu1.dcache.SwapReq_avg_mshr_miss_latency::total  9046.270718                       # average SwapReq mshr miss latency
system.cpu1.dcache.tags.pwrStateResidencyTicks::UNDEFINED  71025343500                       # Cumulative time (in ticks) in various power states
system.cpu1.dcache.tags.tagsinuse           31.715573                       # Cycle average of tags in use
system.cpu1.dcache.tags.total_refs           13875741                       # Total number of references to valid blocks.
system.cpu1.dcache.tags.sampled_refs           995246                       # Sample count of references to valid blocks.
system.cpu1.dcache.tags.avg_refs            13.942021                       # Average number of references to valid blocks.
system.cpu1.dcache.tags.warmup_cycle                0                       # Cycle when the warmup percentage was hit.
system.cpu1.dcache.tags.occ_blocks::.cpu1.data    31.715573                       # Average occupied blocks per requestor
system.cpu1.dcache.tags.occ_percent::.cpu1.data     0.991112                       # Average percentage of cache occupancy
system.cpu1.dcache.tags.occ_percent::total     0.991112                       # Average percentage of cache occupancy
system.cpu1.dcache.tags.occ_task_id_blocks::1024           28                       # Occupied blocks per task id
system.cpu1.dcache.tags.age_task_id_blocks_1024::1            3                       # Occupied blocks per task id
system.cpu1.dcache.tags.age_task_id_blocks_1024::2           25                       # Occupied blocks per task id
system.cpu1.dcache.tags.occ_task_id_percent::1024     0.875000                       # Percentage of cache occupancy per task id
system.cpu1.dcache.tags.tag_accesses         44745743                       # Number of tag accesses
system.cpu1.dcache.tags.data_accesses        44745743                       # Number of data accesses
system.cpu_clk_domain.clock                       500                       # Clock period in ticks
system.tol2bus.pwrStateResidencyTicks::UNDEFINED  71025343500                       # Cumulative time (in ticks) in various power states
system.tol2bus.trans_dist::ReadResp           1648667                       # Transaction distribution
system.tol2bus.trans_dist::WritebackDirty      1858434                       # Transaction distribution
system.tol2bus.trans_dist::WritebackClean      1186901                       # Transaction distribution
system.tol2bus.trans_dist::CleanEvict         3385864                       # Transaction distribution
system.tol2bus.trans_dist::HardPFReq          1721648                       # Transaction distribution
system.tol2bus.trans_dist::UpgradeReq            2073                       # Transaction distribution
system.tol2bus.trans_dist::SCUpgradeReq          1486                       # Transaction distribution
system.tol2bus.trans_dist::UpgradeResp           3559                       # Transaction distribution
system.tol2bus.trans_dist::SCUpgradeFailReq            7                       # Transaction distribution
system.tol2bus.trans_dist::UpgradeFailResp            7                       # Transaction distribution
system.tol2bus.trans_dist::ReadExReq           473430                       # Transaction distribution
system.tol2bus.trans_dist::ReadExResp          473430                       # Transaction distribution
system.tol2bus.trans_dist::ReadCleanReq         86449                       # Transaction distribution
system.tol2bus.trans_dist::ReadSharedReq      1562218                       # Transaction distribution
system.tol2bus.trans_dist::InvalidateReq         3591                       # Transaction distribution
system.tol2bus.trans_dist::InvalidateResp         3591                       # Transaction distribution
system.tol2bus.pkt_count_system.cpu0.icache.mem_side::system.l2.cpu_side       214626                       # Packet count per connected master and slave (bytes)
system.tol2bus.pkt_count_system.cpu0.dcache.mem_side::system.l2.cpu_side      3130617                       # Packet count per connected master and slave (bytes)
system.tol2bus.pkt_count_system.cpu1.icache.mem_side::system.l2.cpu_side        44685                       # Packet count per connected master and slave (bytes)
system.tol2bus.pkt_count_system.cpu1.dcache.mem_side::system.l2.cpu_side      2982713                       # Packet count per connected master and slave (bytes)
system.tol2bus.pkt_count::total               6372641                       # Packet count per connected master and slave (bytes)
system.tol2bus.pkt_size_system.cpu0.icache.mem_side::system.l2.cpu_side      9156608                       # Cumulative packet size per connected master and slave (bytes)
system.tol2bus.pkt_size_system.cpu0.dcache.mem_side::system.l2.cpu_side    133153920                       # Cumulative packet size per connected master and slave (bytes)
system.tol2bus.pkt_size_system.cpu1.icache.mem_side::system.l2.cpu_side      1906560                       # Cumulative packet size per connected master and slave (bytes)
system.tol2bus.pkt_size_system.cpu1.dcache.mem_side::system.l2.cpu_side    127077056                       # Cumulative packet size per connected master and slave (bytes)
system.tol2bus.pkt_size::total              271294144                       # Cumulative packet size per connected master and slave (bytes)
system.tol2bus.snoops                         6038714                       # Total snoops (count)
system.tol2bus.snoopTraffic                  59421952                       # Total snoop traffic (bytes)
system.tol2bus.snoop_fanout::samples          8160997                       # Request fanout histogram
system.tol2bus.snoop_fanout::mean            0.246446                       # Request fanout histogram
system.tol2bus.snoop_fanout::stdev           0.437684                       # Request fanout histogram
system.tol2bus.snoop_fanout::underflows             0      0.00%      0.00% # Request fanout histogram
system.tol2bus.snoop_fanout::0                6173652     75.65%     75.65% # Request fanout histogram
system.tol2bus.snoop_fanout::1                1963447     24.06%     99.71% # Request fanout histogram
system.tol2bus.snoop_fanout::2                  23898      0.29%    100.00% # Request fanout histogram
system.tol2bus.snoop_fanout::3                      0      0.00%    100.00% # Request fanout histogram
system.tol2bus.snoop_fanout::4                      0      0.00%    100.00% # Request fanout histogram
system.tol2bus.snoop_fanout::5                      0      0.00%    100.00% # Request fanout histogram
system.tol2bus.snoop_fanout::6                      0      0.00%    100.00% # Request fanout histogram
system.tol2bus.snoop_fanout::7                      0      0.00%    100.00% # Request fanout histogram
system.tol2bus.snoop_fanout::8                      0      0.00%    100.00% # Request fanout histogram
system.tol2bus.snoop_fanout::overflows              0      0.00%    100.00% # Request fanout histogram
system.tol2bus.snoop_fanout::min_value              0                       # Request fanout histogram
system.tol2bus.snoop_fanout::max_value              2                       # Request fanout histogram
system.tol2bus.snoop_fanout::total            8160997                       # Request fanout histogram
system.tol2bus.reqLayer0.occupancy         4246905143                       # Layer occupancy (ticks)
system.tol2bus.reqLayer0.utilization              6.0                       # Layer utilization (%)
system.tol2bus.respLayer1.occupancy        1564470793                       # Layer occupancy (ticks)
system.tol2bus.respLayer1.utilization             2.2                       # Layer utilization (%)
system.tol2bus.respLayer0.occupancy         108057045                       # Layer occupancy (ticks)
system.tol2bus.respLayer0.utilization             0.2                       # Layer utilization (%)
system.tol2bus.respLayer3.occupancy        1494127630                       # Layer occupancy (ticks)
system.tol2bus.respLayer3.utilization             2.1                       # Layer utilization (%)
system.tol2bus.respLayer2.occupancy          22573537                       # Layer occupancy (ticks)
system.tol2bus.respLayer2.utilization             0.0                       # Layer utilization (%)

---------- End Simulation Statistics   ----------
