
---------- Begin Simulation Statistics ----------
final_tick                               574585569000                       # Number of ticks from beginning of simulation (restored from checkpoints and never reset)
host_inst_rate                                  85847                       # Simulator instruction rate (inst/s)
host_mem_usage                                 702584                       # Number of bytes of host memory used
host_op_rate                                    86133                       # Simulator op (including micro ops) rate (op/s)
host_seconds                                  7134.99                       # Real time elapsed on the host
host_tick_rate                               80530690                       # Simulator tick rate (ticks/s)
sim_freq                                 1000000000000                       # Frequency of simulated ticks
sim_insts                                   612517140                       # Number of instructions simulated
sim_ops                                     614554720                       # Number of ops (including micro ops) simulated
sim_seconds                                  0.574586                       # Number of seconds simulated
sim_ticks                                574585569000                       # Number of ticks simulated
system.cpu0.branchPred.BTBCorrect                   0                       # Number of correct BTB predictions (this stat may not work properly.
system.cpu0.branchPred.BTBHitPct            86.926075                       # BTB Hit Percentage
system.cpu0.branchPred.BTBHits               77491333                       # Number of BTB hits
system.cpu0.branchPred.BTBLookups            89146246                       # Number of BTB lookups
system.cpu0.branchPred.RASInCorrect                 0                       # Number of incorrect RAS predictions.
system.cpu0.branchPred.condIncorrect          7240859                       # Number of conditional branches incorrect
system.cpu0.branchPred.condPredicted        121071290                       # Number of conditional branches predicted
system.cpu0.branchPred.indirectHits          10512750                       # Number of indirect target hits.
system.cpu0.branchPred.indirectLookups       10728629                       # Number of indirect predictor lookups.
system.cpu0.branchPred.indirectMisses          215879                       # Number of indirect misses.
system.cpu0.branchPred.lookups              155047591                       # Number of BP lookups
system.cpu0.branchPred.usedRAS                      0                       # Number of times the RAS was used to get a target.
system.cpu0.branchPredindirectMispredicted      1064016                       # Number of mispredicted indirect branches.
system.cpu0.commit.amos                       1018189                       # Number of atomic instructions committed
system.cpu0.commit.branchMispredicts          5039664                       # The number of times a branch was mispredicted
system.cpu0.commit.branches                 143197016                       # Number of branches committed
system.cpu0.commit.bw_lim_events             14361077                       # number cycles where commit BW limit reached
system.cpu0.commit.commitNonSpecStalls        3058453                       # The number of times commit has been forced to stall to communicate backwards
system.cpu0.commit.commitSquashedInsts       33178768                       # The number of squashed insts skipped by commit
system.cpu0.commit.committedInsts           580254532                       # Number of instructions committed
system.cpu0.commit.committedOps             581274010                       # Number of ops (including micro ops) committed
system.cpu0.commit.committed_per_cycle::samples   1062739666                       # Number of insts commited each cycle
system.cpu0.commit.committed_per_cycle::mean     0.546958                       # Number of insts commited each cycle
system.cpu0.commit.committed_per_cycle::stdev     1.277254                       # Number of insts commited each cycle
system.cpu0.commit.committed_per_cycle::underflows            0      0.00%      0.00% # Number of insts commited each cycle
system.cpu0.commit.committed_per_cycle::0    774054977     72.84%     72.84% # Number of insts commited each cycle
system.cpu0.commit.committed_per_cycle::1    170476711     16.04%     88.88% # Number of insts commited each cycle
system.cpu0.commit.committed_per_cycle::2     45987694      4.33%     93.20% # Number of insts commited each cycle
system.cpu0.commit.committed_per_cycle::3     41123810      3.87%     97.07% # Number of insts commited each cycle
system.cpu0.commit.committed_per_cycle::4      9645444      0.91%     97.98% # Number of insts commited each cycle
system.cpu0.commit.committed_per_cycle::5      2860646      0.27%     98.25% # Number of insts commited each cycle
system.cpu0.commit.committed_per_cycle::6      1928290      0.18%     98.43% # Number of insts commited each cycle
system.cpu0.commit.committed_per_cycle::7      2301017      0.22%     98.65% # Number of insts commited each cycle
system.cpu0.commit.committed_per_cycle::8     14361077      1.35%    100.00% # Number of insts commited each cycle
system.cpu0.commit.committed_per_cycle::overflows            0      0.00%    100.00% # Number of insts commited each cycle
system.cpu0.commit.committed_per_cycle::min_value            0                       # Number of insts commited each cycle
system.cpu0.commit.committed_per_cycle::max_value            8                       # Number of insts commited each cycle
system.cpu0.commit.committed_per_cycle::total   1062739666                       # Number of insts commited each cycle
system.cpu0.commit.fp_insts                        50                       # Number of committed floating point instructions.
system.cpu0.commit.function_calls            11887055                       # Number of function calls committed.
system.cpu0.commit.int_insts                561254757                       # Number of committed integer instructions.
system.cpu0.commit.loads                    179946839                       # Number of loads committed
system.cpu0.commit.membars                    2037577                       # Number of memory barriers committed
system.cpu0.commit.op_class_0::No_OpClass      2037583      0.35%      0.35% # Class of committed instruction
system.cpu0.commit.op_class_0::IntAlu       322208339     55.43%     55.78% # Class of committed instruction
system.cpu0.commit.op_class_0::IntMult        4135822      0.71%     56.49% # Class of committed instruction
system.cpu0.commit.op_class_0::IntDiv         1017773      0.18%     56.67% # Class of committed instruction
system.cpu0.commit.op_class_0::FloatAdd             0      0.00%     56.67% # Class of committed instruction
system.cpu0.commit.op_class_0::FloatCmp             4      0.00%     56.67% # Class of committed instruction
system.cpu0.commit.op_class_0::FloatCvt            12      0.00%     56.67% # Class of committed instruction
system.cpu0.commit.op_class_0::FloatMult            0      0.00%     56.67% # Class of committed instruction
system.cpu0.commit.op_class_0::FloatMultAcc            0      0.00%     56.67% # Class of committed instruction
system.cpu0.commit.op_class_0::FloatDiv             2      0.00%     56.67% # Class of committed instruction
system.cpu0.commit.op_class_0::FloatMisc            4      0.00%     56.67% # Class of committed instruction
system.cpu0.commit.op_class_0::FloatSqrt            0      0.00%     56.67% # Class of committed instruction
system.cpu0.commit.op_class_0::SimdAdd              0      0.00%     56.67% # Class of committed instruction
system.cpu0.commit.op_class_0::SimdAddAcc            0      0.00%     56.67% # Class of committed instruction
system.cpu0.commit.op_class_0::SimdAlu              0      0.00%     56.67% # Class of committed instruction
system.cpu0.commit.op_class_0::SimdCmp              0      0.00%     56.67% # Class of committed instruction
system.cpu0.commit.op_class_0::SimdCvt              0      0.00%     56.67% # Class of committed instruction
system.cpu0.commit.op_class_0::SimdMisc             0      0.00%     56.67% # Class of committed instruction
system.cpu0.commit.op_class_0::SimdMult             0      0.00%     56.67% # Class of committed instruction
system.cpu0.commit.op_class_0::SimdMultAcc            0      0.00%     56.67% # Class of committed instruction
system.cpu0.commit.op_class_0::SimdShift            0      0.00%     56.67% # Class of committed instruction
system.cpu0.commit.op_class_0::SimdShiftAcc            0      0.00%     56.67% # Class of committed instruction
system.cpu0.commit.op_class_0::SimdDiv              0      0.00%     56.67% # Class of committed instruction
system.cpu0.commit.op_class_0::SimdSqrt             0      0.00%     56.67% # Class of committed instruction
system.cpu0.commit.op_class_0::SimdFloatAdd            0      0.00%     56.67% # Class of committed instruction
system.cpu0.commit.op_class_0::SimdFloatAlu            0      0.00%     56.67% # Class of committed instruction
system.cpu0.commit.op_class_0::SimdFloatCmp            0      0.00%     56.67% # Class of committed instruction
system.cpu0.commit.op_class_0::SimdFloatCvt            0      0.00%     56.67% # Class of committed instruction
system.cpu0.commit.op_class_0::SimdFloatDiv            0      0.00%     56.67% # Class of committed instruction
system.cpu0.commit.op_class_0::SimdFloatMisc            0      0.00%     56.67% # Class of committed instruction
system.cpu0.commit.op_class_0::SimdFloatMult            0      0.00%     56.67% # Class of committed instruction
system.cpu0.commit.op_class_0::SimdFloatMultAcc            0      0.00%     56.67% # Class of committed instruction
system.cpu0.commit.op_class_0::SimdFloatSqrt            0      0.00%     56.67% # Class of committed instruction
system.cpu0.commit.op_class_0::SimdReduceAdd            0      0.00%     56.67% # Class of committed instruction
system.cpu0.commit.op_class_0::SimdReduceAlu            0      0.00%     56.67% # Class of committed instruction
system.cpu0.commit.op_class_0::SimdReduceCmp            0      0.00%     56.67% # Class of committed instruction
system.cpu0.commit.op_class_0::SimdFloatReduceAdd            0      0.00%     56.67% # Class of committed instruction
system.cpu0.commit.op_class_0::SimdFloatReduceCmp            0      0.00%     56.67% # Class of committed instruction
system.cpu0.commit.op_class_0::SimdAes              0      0.00%     56.67% # Class of committed instruction
system.cpu0.commit.op_class_0::SimdAesMix            0      0.00%     56.67% # Class of committed instruction
system.cpu0.commit.op_class_0::SimdSha1Hash            0      0.00%     56.67% # Class of committed instruction
system.cpu0.commit.op_class_0::SimdSha1Hash2            0      0.00%     56.67% # Class of committed instruction
system.cpu0.commit.op_class_0::SimdSha256Hash            0      0.00%     56.67% # Class of committed instruction
system.cpu0.commit.op_class_0::SimdSha256Hash2            0      0.00%     56.67% # Class of committed instruction
system.cpu0.commit.op_class_0::SimdShaSigma2            0      0.00%     56.67% # Class of committed instruction
system.cpu0.commit.op_class_0::SimdShaSigma3            0      0.00%     56.67% # Class of committed instruction
system.cpu0.commit.op_class_0::SimdPredAlu            0      0.00%     56.67% # Class of committed instruction
system.cpu0.commit.op_class_0::MemRead      180965020     31.13%     87.80% # Class of committed instruction
system.cpu0.commit.op_class_0::MemWrite      70909423     12.20%    100.00% # Class of committed instruction
system.cpu0.commit.op_class_0::FloatMemRead            8      0.00%    100.00% # Class of committed instruction
system.cpu0.commit.op_class_0::FloatMemWrite           20      0.00%    100.00% # Class of committed instruction
system.cpu0.commit.op_class_0::IprAccess            0      0.00%    100.00% # Class of committed instruction
system.cpu0.commit.op_class_0::InstPrefetch            0      0.00%    100.00% # Class of committed instruction
system.cpu0.commit.op_class_0::total        581274010                       # Class of committed instruction
system.cpu0.commit.refs                     251874471                       # Number of memory references committed
system.cpu0.commit.swp_count                        0                       # Number of s/w prefetches committed
system.cpu0.commit.vec_insts                        0                       # Number of committed Vector instructions.
system.cpu0.committedInsts                  580254532                       # Number of Instructions Simulated
system.cpu0.committedOps                    581274010                       # Number of Ops (including micro ops) Simulated
system.cpu0.cpi                              1.964279                       # CPI: Cycles Per Instruction
system.cpu0.cpi_total                        1.964279                       # CPI: Total CPI of All Threads
system.cpu0.decode.BlockedCycles            166324014                       # Number of cycles decode is blocked
system.cpu0.decode.BranchMispred              2209833                       # Number of times decode detected a branch misprediction
system.cpu0.decode.BranchResolved            77062119                       # Number of times decode resolved a branch
system.cpu0.decode.DecodedInsts             627668526                       # Number of instructions handled by decode
system.cpu0.decode.IdleCycles               465547405                       # Number of cycles decode is idle
system.cpu0.decode.RunCycles                429729456                       # Number of cycles decode is running
system.cpu0.decode.SquashCycles               5046774                       # Number of cycles decode is squashing
system.cpu0.decode.SquashedInsts              7258453                       # Number of squashed instructions handled by decode
system.cpu0.decode.UnblockCycles              2974458                       # Number of cycles decode is unblocking
system.cpu0.dtb.accesses                            0                       # DTB accesses
system.cpu0.dtb.hits                                0                       # DTB hits
system.cpu0.dtb.misses                              0                       # DTB misses
system.cpu0.dtb.read_accesses                       0                       # DTB read accesses
system.cpu0.dtb.read_hits                           0                       # DTB read hits
system.cpu0.dtb.read_misses                         0                       # DTB read misses
system.cpu0.dtb.write_accesses                      0                       # DTB write accesses
system.cpu0.dtb.write_hits                          0                       # DTB write hits
system.cpu0.dtb.write_misses                        0                       # DTB write misses
system.cpu0.fetch.Branches                  155047591                       # Number of branches that fetch encountered
system.cpu0.fetch.CacheLines                111336188                       # Number of cache lines fetched
system.cpu0.fetch.Cycles                    609568162                       # Number of cycles fetch has run and was not squashing or blocked
system.cpu0.fetch.IcacheSquashes              1637210                       # Number of outstanding Icache misses that were squashed
system.cpu0.fetch.IcacheWaitRetryStallCycles          126                       # Number of stall cycles due to full MSHR
system.cpu0.fetch.Insts                     638923081                       # Number of instructions fetch has processed
system.cpu0.fetch.MiscStallCycles                  44                       # Number of cycles fetch has spent waiting on interrupts, or bad addresses, or out of MSHRs
system.cpu0.fetch.PendingTrapStallCycles          171                       # Number of stall cycles due to pending traps
system.cpu0.fetch.SquashCycles               14495992                       # Number of cycles fetch has spent squashing
system.cpu0.fetch.branchRate                 0.136033                       # Number of branch fetches per cycle
system.cpu0.fetch.icacheStallCycles         452805608                       # Number of cycles fetch is stalled on an Icache miss
system.cpu0.fetch.predictedBranches          88004083                       # Number of branches that fetch has predicted taken
system.cpu0.fetch.rate                       0.560566                       # Number of inst fetches per cycle
system.cpu0.fetch.rateDist::samples        1069622107                       # Number of instructions fetched each cycle (Total)
system.cpu0.fetch.rateDist::mean             0.598289                       # Number of instructions fetched each cycle (Total)
system.cpu0.fetch.rateDist::stdev            0.900622                       # Number of instructions fetched each cycle (Total)
system.cpu0.fetch.rateDist::underflows              0      0.00%      0.00% # Number of instructions fetched each cycle (Total)
system.cpu0.fetch.rateDist::0               622509279     58.20%     58.20% # Number of instructions fetched each cycle (Total)
system.cpu0.fetch.rateDist::1               331278434     30.97%     89.17% # Number of instructions fetched each cycle (Total)
system.cpu0.fetch.rateDist::2                59651076      5.58%     94.75% # Number of instructions fetched each cycle (Total)
system.cpu0.fetch.rateDist::3                43795426      4.09%     98.84% # Number of instructions fetched each cycle (Total)
system.cpu0.fetch.rateDist::4                 8110122      0.76%     99.60% # Number of instructions fetched each cycle (Total)
system.cpu0.fetch.rateDist::5                 2178434      0.20%     99.80% # Number of instructions fetched each cycle (Total)
system.cpu0.fetch.rateDist::6                   55389      0.01%     99.81% # Number of instructions fetched each cycle (Total)
system.cpu0.fetch.rateDist::7                 2040537      0.19%    100.00% # Number of instructions fetched each cycle (Total)
system.cpu0.fetch.rateDist::8                    3410      0.00%    100.00% # Number of instructions fetched each cycle (Total)
system.cpu0.fetch.rateDist::overflows               0      0.00%    100.00% # Number of instructions fetched each cycle (Total)
system.cpu0.fetch.rateDist::min_value               0                       # Number of instructions fetched each cycle (Total)
system.cpu0.fetch.rateDist::max_value               8                       # Number of instructions fetched each cycle (Total)
system.cpu0.fetch.rateDist::total          1069622107                       # Number of instructions fetched each cycle (Total)
system.cpu0.fp_regfile_reads                       44                       # number of floating regfile reads
system.cpu0.fp_regfile_writes                      23                       # number of floating regfile writes
system.cpu0.idleCycles                       70159815                       # Total number of cycles that the CPU has spent unscheduled due to idling
system.cpu0.iew.branchMispredicts             5104883                       # Number of branch mispredicts detected at execute
system.cpu0.iew.exec_branches               146822762                       # Number of branches executed
system.cpu0.iew.exec_nop                            0                       # number of nop insts executed
system.cpu0.iew.exec_rate                    0.530172                       # Inst execution rate
system.cpu0.iew.exec_refs                   264701827                       # number of memory reference insts executed
system.cpu0.iew.exec_stores                  74352983                       # Number of stores executed
system.cpu0.iew.exec_swp                            0                       # number of swp insts executed
system.cpu0.iew.iewBlockCycles              140472506                       # Number of cycles IEW is blocking
system.cpu0.iew.iewDispLoadInsts            192477382                       # Number of dispatched load instructions
system.cpu0.iew.iewDispNonSpecInsts           1021087                       # Number of dispatched non-speculative instructions
system.cpu0.iew.iewDispSquashedInsts          2856463                       # Number of squashed instructions skipped by dispatch
system.cpu0.iew.iewDispStoreInsts            75049318                       # Number of dispatched store instructions
system.cpu0.iew.iewDispatchedInsts          614438062                       # Number of instructions dispatched to IQ
system.cpu0.iew.iewExecLoadInsts            190348844                       # Number of load instructions executed
system.cpu0.iew.iewExecSquashedInsts          5091872                       # Number of squashed instructions skipped in execute
system.cpu0.iew.iewExecutedInsts            604280767                       # Number of executed instructions
system.cpu0.iew.iewIQFullEvents               1002924                       # Number of times the IQ has become full, causing a stall
system.cpu0.iew.iewIdleCycles                       0                       # Number of cycles IEW is idle
system.cpu0.iew.iewLSQFullEvents              2473472                       # Number of times the LSQ has become full, causing a stall
system.cpu0.iew.iewSquashCycles               5046774                       # Number of cycles IEW is squashing
system.cpu0.iew.iewUnblockCycles              4641224                       # Number of cycles IEW is unblocking
system.cpu0.iew.lsq.thread0.blockedLoads            0                       # Number of blocked loads due to partial load-store forwarding
system.cpu0.iew.lsq.thread0.cacheBlocked        54467                       # Number of times an access to memory failed due to the cache being blocked
system.cpu0.iew.lsq.thread0.forwLoads         7953884                       # Number of loads that had data forwarded from stores
system.cpu0.iew.lsq.thread0.ignoredResponses        27365                       # Number of memory responses ignored because the instruction is squashed
system.cpu0.iew.lsq.thread0.invAddrLoads            0                       # Number of loads ignored due to an invalid address
system.cpu0.iew.lsq.thread0.invAddrSwpfs            0                       # Number of software prefetches ignored due to an invalid address
system.cpu0.iew.lsq.thread0.memOrderViolation         7316                       # Number of memory ordering violations
system.cpu0.iew.lsq.thread0.rescheduledLoads      2352112                       # Number of loads that were rescheduled
system.cpu0.iew.lsq.thread0.squashedLoads     12530543                       # Number of loads squashed
system.cpu0.iew.lsq.thread0.squashedStores      3121686                       # Number of stores squashed
system.cpu0.iew.memOrderViolationEvents          7316                       # Number of memory order violations
system.cpu0.iew.predictedNotTakenIncorrect       854805                       # Number of branches that were predicted not taken incorrectly
system.cpu0.iew.predictedTakenIncorrect       4250078                       # Number of branches that were predicted taken incorrectly
system.cpu0.iew.wb_consumers                251835736                       # num instructions consuming a value
system.cpu0.iew.wb_count                    599377711                       # cumulative count of insts written-back
system.cpu0.iew.wb_fanout                    0.885174                       # average fanout of values written-back
system.cpu0.iew.wb_producers                222918342                       # num instructions producing a value
system.cpu0.iew.wb_rate                      0.525871                       # insts written-back per cycle
system.cpu0.iew.wb_sent                     599422617                       # cumulative count of insts sent to commit
system.cpu0.int_regfile_reads               737903141                       # number of integer regfile reads
system.cpu0.int_regfile_writes              382736639                       # number of integer regfile writes
system.cpu0.ipc                              0.509093                       # IPC: Instructions Per Cycle
system.cpu0.ipc_total                        0.509093                       # IPC: Total IPC of All Threads
system.cpu0.iq.FU_type_0::No_OpClass          2038459      0.33%      0.33% # Type of FU issued
system.cpu0.iq.FU_type_0::IntAlu            335189601     55.01%     55.34% # Type of FU issued
system.cpu0.iq.FU_type_0::IntMult             4139492      0.68%     56.02% # Type of FU issued
system.cpu0.iq.FU_type_0::IntDiv              1018052      0.17%     56.19% # Type of FU issued
system.cpu0.iq.FU_type_0::FloatAdd                  0      0.00%     56.19% # Type of FU issued
system.cpu0.iq.FU_type_0::FloatCmp                  4      0.00%     56.19% # Type of FU issued
system.cpu0.iq.FU_type_0::FloatCvt                 12      0.00%     56.19% # Type of FU issued
system.cpu0.iq.FU_type_0::FloatMult                 0      0.00%     56.19% # Type of FU issued
system.cpu0.iq.FU_type_0::FloatMultAcc              0      0.00%     56.19% # Type of FU issued
system.cpu0.iq.FU_type_0::FloatDiv                  2      0.00%     56.19% # Type of FU issued
system.cpu0.iq.FU_type_0::FloatMisc                 4      0.00%     56.19% # Type of FU issued
system.cpu0.iq.FU_type_0::FloatSqrt                 0      0.00%     56.19% # Type of FU issued
system.cpu0.iq.FU_type_0::SimdAdd                   0      0.00%     56.19% # Type of FU issued
system.cpu0.iq.FU_type_0::SimdAddAcc                0      0.00%     56.19% # Type of FU issued
system.cpu0.iq.FU_type_0::SimdAlu                   0      0.00%     56.19% # Type of FU issued
system.cpu0.iq.FU_type_0::SimdCmp                   0      0.00%     56.19% # Type of FU issued
system.cpu0.iq.FU_type_0::SimdCvt                   0      0.00%     56.19% # Type of FU issued
system.cpu0.iq.FU_type_0::SimdMisc                  0      0.00%     56.19% # Type of FU issued
system.cpu0.iq.FU_type_0::SimdMult                  0      0.00%     56.19% # Type of FU issued
system.cpu0.iq.FU_type_0::SimdMultAcc               0      0.00%     56.19% # Type of FU issued
system.cpu0.iq.FU_type_0::SimdShift                 0      0.00%     56.19% # Type of FU issued
system.cpu0.iq.FU_type_0::SimdShiftAcc              0      0.00%     56.19% # Type of FU issued
system.cpu0.iq.FU_type_0::SimdDiv                   0      0.00%     56.19% # Type of FU issued
system.cpu0.iq.FU_type_0::SimdSqrt                  0      0.00%     56.19% # Type of FU issued
system.cpu0.iq.FU_type_0::SimdFloatAdd              0      0.00%     56.19% # Type of FU issued
system.cpu0.iq.FU_type_0::SimdFloatAlu              0      0.00%     56.19% # Type of FU issued
system.cpu0.iq.FU_type_0::SimdFloatCmp              0      0.00%     56.19% # Type of FU issued
system.cpu0.iq.FU_type_0::SimdFloatCvt              0      0.00%     56.19% # Type of FU issued
system.cpu0.iq.FU_type_0::SimdFloatDiv              0      0.00%     56.19% # Type of FU issued
system.cpu0.iq.FU_type_0::SimdFloatMisc             0      0.00%     56.19% # Type of FU issued
system.cpu0.iq.FU_type_0::SimdFloatMult             0      0.00%     56.19% # Type of FU issued
system.cpu0.iq.FU_type_0::SimdFloatMultAcc            0      0.00%     56.19% # Type of FU issued
system.cpu0.iq.FU_type_0::SimdFloatSqrt             0      0.00%     56.19% # Type of FU issued
system.cpu0.iq.FU_type_0::SimdReduceAdd             0      0.00%     56.19% # Type of FU issued
system.cpu0.iq.FU_type_0::SimdReduceAlu             0      0.00%     56.19% # Type of FU issued
system.cpu0.iq.FU_type_0::SimdReduceCmp             0      0.00%     56.19% # Type of FU issued
system.cpu0.iq.FU_type_0::SimdFloatReduceAdd            0      0.00%     56.19% # Type of FU issued
system.cpu0.iq.FU_type_0::SimdFloatReduceCmp            0      0.00%     56.19% # Type of FU issued
system.cpu0.iq.FU_type_0::SimdAes                   0      0.00%     56.19% # Type of FU issued
system.cpu0.iq.FU_type_0::SimdAesMix                0      0.00%     56.19% # Type of FU issued
system.cpu0.iq.FU_type_0::SimdSha1Hash              0      0.00%     56.19% # Type of FU issued
system.cpu0.iq.FU_type_0::SimdSha1Hash2             0      0.00%     56.19% # Type of FU issued
system.cpu0.iq.FU_type_0::SimdSha256Hash            0      0.00%     56.19% # Type of FU issued
system.cpu0.iq.FU_type_0::SimdSha256Hash2            0      0.00%     56.19% # Type of FU issued
system.cpu0.iq.FU_type_0::SimdShaSigma2             0      0.00%     56.19% # Type of FU issued
system.cpu0.iq.FU_type_0::SimdShaSigma3             0      0.00%     56.19% # Type of FU issued
system.cpu0.iq.FU_type_0::SimdPredAlu               0      0.00%     56.19% # Type of FU issued
system.cpu0.iq.FU_type_0::MemRead           193459743     31.75%     87.93% # Type of FU issued
system.cpu0.iq.FU_type_0::MemWrite           73527240     12.07%    100.00% # Type of FU issued
system.cpu0.iq.FU_type_0::FloatMemRead             11      0.00%    100.00% # Type of FU issued
system.cpu0.iq.FU_type_0::FloatMemWrite            20      0.00%    100.00% # Type of FU issued
system.cpu0.iq.FU_type_0::IprAccess                 0      0.00%    100.00% # Type of FU issued
system.cpu0.iq.FU_type_0::InstPrefetch              0      0.00%    100.00% # Type of FU issued
system.cpu0.iq.FU_type_0::total             609372640                       # Type of FU issued
system.cpu0.iq.fp_alu_accesses                     55                       # Number of floating point alu accesses
system.cpu0.iq.fp_inst_queue_reads                108                       # Number of floating instruction queue reads
system.cpu0.iq.fp_inst_queue_wakeup_accesses           51                       # Number of floating instruction queue wakeup accesses
system.cpu0.iq.fp_inst_queue_writes                56                       # Number of floating instruction queue writes
system.cpu0.iq.fu_busy_cnt                    1267923                       # FU busy when requested
system.cpu0.iq.fu_busy_rate                  0.002081                       # FU busy rate (busy events/executed inst)
system.cpu0.iq.fu_full::No_OpClass                  0      0.00%      0.00% # attempts to use FU when none available
system.cpu0.iq.fu_full::IntAlu                 199394     15.73%     15.73% # attempts to use FU when none available
system.cpu0.iq.fu_full::IntMult                     0      0.00%     15.73% # attempts to use FU when none available
system.cpu0.iq.fu_full::IntDiv                      0      0.00%     15.73% # attempts to use FU when none available
system.cpu0.iq.fu_full::FloatAdd                    0      0.00%     15.73% # attempts to use FU when none available
system.cpu0.iq.fu_full::FloatCmp                    0      0.00%     15.73% # attempts to use FU when none available
system.cpu0.iq.fu_full::FloatCvt                    0      0.00%     15.73% # attempts to use FU when none available
system.cpu0.iq.fu_full::FloatMult                   0      0.00%     15.73% # attempts to use FU when none available
system.cpu0.iq.fu_full::FloatMultAcc                0      0.00%     15.73% # attempts to use FU when none available
system.cpu0.iq.fu_full::FloatDiv                    0      0.00%     15.73% # attempts to use FU when none available
system.cpu0.iq.fu_full::FloatMisc                   0      0.00%     15.73% # attempts to use FU when none available
system.cpu0.iq.fu_full::FloatSqrt                   0      0.00%     15.73% # attempts to use FU when none available
system.cpu0.iq.fu_full::SimdAdd                     0      0.00%     15.73% # attempts to use FU when none available
system.cpu0.iq.fu_full::SimdAddAcc                  0      0.00%     15.73% # attempts to use FU when none available
system.cpu0.iq.fu_full::SimdAlu                     0      0.00%     15.73% # attempts to use FU when none available
system.cpu0.iq.fu_full::SimdCmp                     0      0.00%     15.73% # attempts to use FU when none available
system.cpu0.iq.fu_full::SimdCvt                     0      0.00%     15.73% # attempts to use FU when none available
system.cpu0.iq.fu_full::SimdMisc                    0      0.00%     15.73% # attempts to use FU when none available
system.cpu0.iq.fu_full::SimdMult                    0      0.00%     15.73% # attempts to use FU when none available
system.cpu0.iq.fu_full::SimdMultAcc                 0      0.00%     15.73% # attempts to use FU when none available
system.cpu0.iq.fu_full::SimdShift                   0      0.00%     15.73% # attempts to use FU when none available
system.cpu0.iq.fu_full::SimdShiftAcc                0      0.00%     15.73% # attempts to use FU when none available
system.cpu0.iq.fu_full::SimdDiv                     0      0.00%     15.73% # attempts to use FU when none available
system.cpu0.iq.fu_full::SimdSqrt                    0      0.00%     15.73% # attempts to use FU when none available
system.cpu0.iq.fu_full::SimdFloatAdd                0      0.00%     15.73% # attempts to use FU when none available
system.cpu0.iq.fu_full::SimdFloatAlu                0      0.00%     15.73% # attempts to use FU when none available
system.cpu0.iq.fu_full::SimdFloatCmp                0      0.00%     15.73% # attempts to use FU when none available
system.cpu0.iq.fu_full::SimdFloatCvt                0      0.00%     15.73% # attempts to use FU when none available
system.cpu0.iq.fu_full::SimdFloatDiv                0      0.00%     15.73% # attempts to use FU when none available
system.cpu0.iq.fu_full::SimdFloatMisc               0      0.00%     15.73% # attempts to use FU when none available
system.cpu0.iq.fu_full::SimdFloatMult               0      0.00%     15.73% # attempts to use FU when none available
system.cpu0.iq.fu_full::SimdFloatMultAcc            0      0.00%     15.73% # attempts to use FU when none available
system.cpu0.iq.fu_full::SimdFloatSqrt               0      0.00%     15.73% # attempts to use FU when none available
system.cpu0.iq.fu_full::SimdReduceAdd               0      0.00%     15.73% # attempts to use FU when none available
system.cpu0.iq.fu_full::SimdReduceAlu               0      0.00%     15.73% # attempts to use FU when none available
system.cpu0.iq.fu_full::SimdReduceCmp               0      0.00%     15.73% # attempts to use FU when none available
system.cpu0.iq.fu_full::SimdFloatReduceAdd            0      0.00%     15.73% # attempts to use FU when none available
system.cpu0.iq.fu_full::SimdFloatReduceCmp            0      0.00%     15.73% # attempts to use FU when none available
system.cpu0.iq.fu_full::SimdAes                     0      0.00%     15.73% # attempts to use FU when none available
system.cpu0.iq.fu_full::SimdAesMix                  0      0.00%     15.73% # attempts to use FU when none available
system.cpu0.iq.fu_full::SimdSha1Hash                0      0.00%     15.73% # attempts to use FU when none available
system.cpu0.iq.fu_full::SimdSha1Hash2               0      0.00%     15.73% # attempts to use FU when none available
system.cpu0.iq.fu_full::SimdSha256Hash              0      0.00%     15.73% # attempts to use FU when none available
system.cpu0.iq.fu_full::SimdSha256Hash2             0      0.00%     15.73% # attempts to use FU when none available
system.cpu0.iq.fu_full::SimdShaSigma2               0      0.00%     15.73% # attempts to use FU when none available
system.cpu0.iq.fu_full::SimdShaSigma3               0      0.00%     15.73% # attempts to use FU when none available
system.cpu0.iq.fu_full::SimdPredAlu                 0      0.00%     15.73% # attempts to use FU when none available
system.cpu0.iq.fu_full::MemRead                960503     75.75%     91.48% # attempts to use FU when none available
system.cpu0.iq.fu_full::MemWrite               108024      8.52%    100.00% # attempts to use FU when none available
system.cpu0.iq.fu_full::FloatMemRead                0      0.00%    100.00% # attempts to use FU when none available
system.cpu0.iq.fu_full::FloatMemWrite               2      0.00%    100.00% # attempts to use FU when none available
system.cpu0.iq.fu_full::IprAccess                   0      0.00%    100.00% # attempts to use FU when none available
system.cpu0.iq.fu_full::InstPrefetch                0      0.00%    100.00% # attempts to use FU when none available
system.cpu0.iq.int_alu_accesses             608602049                       # Number of integer alu accesses
system.cpu0.iq.int_inst_queue_reads        2289705460                       # Number of integer instruction queue reads
system.cpu0.iq.int_inst_queue_wakeup_accesses    599377660                       # Number of integer instruction queue wakeup accesses
system.cpu0.iq.int_inst_queue_writes        647608745                       # Number of integer instruction queue writes
system.cpu0.iq.iqInstsAdded                 611379201                       # Number of instructions added to the IQ (excludes non-spec)
system.cpu0.iq.iqInstsIssued                609372640                       # Number of instructions issued
system.cpu0.iq.iqNonSpecInstsAdded            3058861                       # Number of non-speculative instructions added to the IQ
system.cpu0.iq.iqSquashedInstsExamined       33164048                       # Number of squashed instructions iterated over during squash; mainly for profiling
system.cpu0.iq.iqSquashedInstsIssued            70259                       # Number of squashed instructions issued
system.cpu0.iq.iqSquashedNonSpecRemoved           408                       # Number of squashed non-spec instructions that were removed
system.cpu0.iq.iqSquashedOperandsExamined     15674460                       # Number of squashed operands that are examined and possibly removed from graph
system.cpu0.iq.issued_per_cycle::samples   1069622107                       # Number of insts issued each cycle
system.cpu0.iq.issued_per_cycle::mean        0.569708                       # Number of insts issued each cycle
system.cpu0.iq.issued_per_cycle::stdev       0.797154                       # Number of insts issued each cycle
system.cpu0.iq.issued_per_cycle::underflows            0      0.00%      0.00% # Number of insts issued each cycle
system.cpu0.iq.issued_per_cycle::0          623227238     58.27%     58.27% # Number of insts issued each cycle
system.cpu0.iq.issued_per_cycle::1          317943139     29.72%     87.99% # Number of insts issued each cycle
system.cpu0.iq.issued_per_cycle::2          101935096      9.53%     97.52% # Number of insts issued each cycle
system.cpu0.iq.issued_per_cycle::3           20497948      1.92%     99.44% # Number of insts issued each cycle
system.cpu0.iq.issued_per_cycle::4            4913108      0.46%     99.90% # Number of insts issued each cycle
system.cpu0.iq.issued_per_cycle::5             516390      0.05%     99.94% # Number of insts issued each cycle
system.cpu0.iq.issued_per_cycle::6             351989      0.03%     99.98% # Number of insts issued each cycle
system.cpu0.iq.issued_per_cycle::7             178443      0.02%     99.99% # Number of insts issued each cycle
system.cpu0.iq.issued_per_cycle::8              58756      0.01%    100.00% # Number of insts issued each cycle
system.cpu0.iq.issued_per_cycle::overflows            0      0.00%    100.00% # Number of insts issued each cycle
system.cpu0.iq.issued_per_cycle::min_value            0                       # Number of insts issued each cycle
system.cpu0.iq.issued_per_cycle::max_value            8                       # Number of insts issued each cycle
system.cpu0.iq.issued_per_cycle::total     1069622107                       # Number of insts issued each cycle
system.cpu0.iq.rate                          0.534640                       # Inst issue rate
system.cpu0.iq.vec_alu_accesses                     0                       # Number of vector alu accesses
system.cpu0.iq.vec_inst_queue_reads                 0                       # Number of vector instruction queue reads
system.cpu0.iq.vec_inst_queue_wakeup_accesses            0                       # Number of vector instruction queue wakeup accesses
system.cpu0.iq.vec_inst_queue_writes                0                       # Number of vector instruction queue writes
system.cpu0.itb.accesses                            0                       # DTB accesses
system.cpu0.itb.hits                                0                       # DTB hits
system.cpu0.itb.misses                              0                       # DTB misses
system.cpu0.itb.read_accesses                       0                       # DTB read accesses
system.cpu0.itb.read_hits                           0                       # DTB read hits
system.cpu0.itb.read_misses                         0                       # DTB read misses
system.cpu0.itb.write_accesses                      0                       # DTB write accesses
system.cpu0.itb.write_hits                          0                       # DTB write hits
system.cpu0.itb.write_misses                        0                       # DTB write misses
system.cpu0.memDep0.conflictingLoads         11062234                       # Number of conflicting loads.
system.cpu0.memDep0.conflictingStores         1758931                       # Number of conflicting stores.
system.cpu0.memDep0.insertedLoads           192477382                       # Number of loads inserted to the mem dependence unit.
system.cpu0.memDep0.insertedStores           75049318                       # Number of stores inserted to the mem dependence unit.
system.cpu0.misc_regfile_reads                    877                       # number of misc regfile reads
system.cpu0.misc_regfile_writes                    22                       # number of misc regfile writes
system.cpu0.numCycles                      1139781922                       # number of cpu cycles simulated
system.cpu0.numWorkItemsCompleted                   0                       # number of work items this cpu completed
system.cpu0.numWorkItemsStarted                     0                       # number of work items this cpu started
system.cpu0.quiesceCycles                     9390248                       # Total number of cycles that CPU has spent quiesced or waiting for an interrupt
system.cpu0.rename.BlockCycles              152324275                       # Number of cycles rename is blocking
system.cpu0.rename.CommittedMaps            370551957                       # Number of HB maps that are committed
system.cpu0.rename.IQFullEvents               6804708                       # Number of times rename has blocked due to IQ full
system.cpu0.rename.IdleCycles               471746717                       # Number of cycles rename is idle
system.cpu0.rename.LQFullEvents               3882206                       # Number of times rename has blocked due to LQ full
system.cpu0.rename.ROBFullEvents                11449                       # Number of times rename has blocked due to ROB full
system.cpu0.rename.RenameLookups            758942204                       # Number of register rename lookups that rename has made
system.cpu0.rename.RenamedInsts             621562775                       # Number of instructions processed by rename
system.cpu0.rename.RenamedOperands          398912896                       # Number of destination operands rename has renamed
system.cpu0.rename.RunCycles                426002864                       # Number of cycles rename is running
system.cpu0.rename.SQFullEvents               3668135                       # Number of times rename has blocked due to SQ full
system.cpu0.rename.SquashCycles               5046774                       # Number of cycles rename is squashing
system.cpu0.rename.UnblockCycles             14423515                       # Number of cycles rename is unblocking
system.cpu0.rename.UndoneMaps                28360934                       # Number of HB maps that are undone due to squashing
system.cpu0.rename.fp_rename_lookups               44                       # Number of floating rename lookups
system.cpu0.rename.int_rename_lookups       758942160                       # Number of integer rename lookups
system.cpu0.rename.serializeStallCycles         77962                       # count of cycles rename stalled for serializing inst
system.cpu0.rename.serializingInsts              2821                       # count of serializing insts renamed
system.cpu0.rename.skidInsts                 13749878                       # count of insts added to the skid buffer
system.cpu0.rename.tempSerializingInsts          2777                       # count of temporary serializing insts renamed
system.cpu0.rob.rob_reads                  1662820473                       # The number of ROB reads
system.cpu0.rob.rob_writes                 1235799692                       # The number of ROB writes
system.cpu0.timesIdled                       15075043                       # Number of times that the entire CPU went into an idle state and unscheduled itself
system.cpu0.workload.numSyscalls                  844                       # Number of system calls
system.cpu1.branchPred.BTBCorrect                   0                       # Number of correct BTB predictions (this stat may not work properly.
system.cpu1.branchPred.BTBHitPct            73.806168                       # BTB Hit Percentage
system.cpu1.branchPred.BTBHits                4443290                       # Number of BTB hits
system.cpu1.branchPred.BTBLookups             6020215                       # Number of BTB lookups
system.cpu1.branchPred.RASInCorrect                 0                       # Number of incorrect RAS predictions.
system.cpu1.branchPred.condIncorrect           776314                       # Number of conditional branches incorrect
system.cpu1.branchPred.condPredicted          7679731                       # Number of conditional branches predicted
system.cpu1.branchPred.indirectHits            248345                       # Number of indirect target hits.
system.cpu1.branchPred.indirectLookups         397220                       # Number of indirect predictor lookups.
system.cpu1.branchPred.indirectMisses          148875                       # Number of indirect misses.
system.cpu1.branchPred.lookups                8644901                       # Number of BP lookups
system.cpu1.branchPred.usedRAS                      0                       # Number of times the RAS was used to get a target.
system.cpu1.branchPredindirectMispredicted         3244                       # Number of mispredicted indirect branches.
system.cpu1.commit.amos                       1017926                       # Number of atomic instructions committed
system.cpu1.commit.branchMispredicts           463924                       # The number of times a branch was mispredicted
system.cpu1.commit.branches                   7095467                       # Number of branches committed
system.cpu1.commit.bw_lim_events               741471                       # number cycles where commit BW limit reached
system.cpu1.commit.commitNonSpecStalls        3054436                       # The number of times commit has been forced to stall to communicate backwards
system.cpu1.commit.commitSquashedInsts        4573780                       # The number of squashed insts skipped by commit
system.cpu1.commit.committedInsts            32262608                       # Number of instructions committed
system.cpu1.commit.committedOps              33280710                       # Number of ops (including micro ops) committed
system.cpu1.commit.committed_per_cycle::samples    181045386                       # Number of insts commited each cycle
system.cpu1.commit.committed_per_cycle::mean     0.183825                       # Number of insts commited each cycle
system.cpu1.commit.committed_per_cycle::stdev     0.836338                       # Number of insts commited each cycle
system.cpu1.commit.committed_per_cycle::underflows            0      0.00%      0.00% # Number of insts commited each cycle
system.cpu1.commit.committed_per_cycle::0    166881777     92.18%     92.18% # Number of insts commited each cycle
system.cpu1.commit.committed_per_cycle::1      7184045      3.97%     96.14% # Number of insts commited each cycle
system.cpu1.commit.committed_per_cycle::2      2501927      1.38%     97.53% # Number of insts commited each cycle
system.cpu1.commit.committed_per_cycle::3      2049339      1.13%     98.66% # Number of insts commited each cycle
system.cpu1.commit.committed_per_cycle::4       498703      0.28%     98.93% # Number of insts commited each cycle
system.cpu1.commit.committed_per_cycle::5       173656      0.10%     99.03% # Number of insts commited each cycle
system.cpu1.commit.committed_per_cycle::6       951342      0.53%     99.56% # Number of insts commited each cycle
system.cpu1.commit.committed_per_cycle::7        63126      0.03%     99.59% # Number of insts commited each cycle
system.cpu1.commit.committed_per_cycle::8       741471      0.41%    100.00% # Number of insts commited each cycle
system.cpu1.commit.committed_per_cycle::overflows            0      0.00%    100.00% # Number of insts commited each cycle
system.cpu1.commit.committed_per_cycle::min_value            0                       # Number of insts commited each cycle
system.cpu1.commit.committed_per_cycle::max_value            8                       # Number of insts commited each cycle
system.cpu1.commit.committed_per_cycle::total    181045386                       # Number of insts commited each cycle
system.cpu1.commit.fp_insts                        12                       # Number of committed floating point instructions.
system.cpu1.commit.function_calls              320804                       # Number of function calls committed.
system.cpu1.commit.int_insts                 31047402                       # Number of committed integer instructions.
system.cpu1.commit.loads                      9248538                       # Number of loads committed
system.cpu1.commit.membars                    2035974                       # Number of memory barriers committed
system.cpu1.commit.op_class_0::No_OpClass      2035974      6.12%      6.12% # Class of committed instruction
system.cpu1.commit.op_class_0::IntAlu        19082352     57.34%     63.46% # Class of committed instruction
system.cpu1.commit.op_class_0::IntMult             42      0.00%     63.46% # Class of committed instruction
system.cpu1.commit.op_class_0::IntDiv              84      0.00%     63.46% # Class of committed instruction
system.cpu1.commit.op_class_0::FloatAdd             0      0.00%     63.46% # Class of committed instruction
system.cpu1.commit.op_class_0::FloatCmp             0      0.00%     63.46% # Class of committed instruction
system.cpu1.commit.op_class_0::FloatCvt             0      0.00%     63.46% # Class of committed instruction
system.cpu1.commit.op_class_0::FloatMult            0      0.00%     63.46% # Class of committed instruction
system.cpu1.commit.op_class_0::FloatMultAcc            0      0.00%     63.46% # Class of committed instruction
system.cpu1.commit.op_class_0::FloatDiv             0      0.00%     63.46% # Class of committed instruction
system.cpu1.commit.op_class_0::FloatMisc            0      0.00%     63.46% # Class of committed instruction
system.cpu1.commit.op_class_0::FloatSqrt            0      0.00%     63.46% # Class of committed instruction
system.cpu1.commit.op_class_0::SimdAdd              0      0.00%     63.46% # Class of committed instruction
system.cpu1.commit.op_class_0::SimdAddAcc            0      0.00%     63.46% # Class of committed instruction
system.cpu1.commit.op_class_0::SimdAlu              0      0.00%     63.46% # Class of committed instruction
system.cpu1.commit.op_class_0::SimdCmp              0      0.00%     63.46% # Class of committed instruction
system.cpu1.commit.op_class_0::SimdCvt              0      0.00%     63.46% # Class of committed instruction
system.cpu1.commit.op_class_0::SimdMisc             0      0.00%     63.46% # Class of committed instruction
system.cpu1.commit.op_class_0::SimdMult             0      0.00%     63.46% # Class of committed instruction
system.cpu1.commit.op_class_0::SimdMultAcc            0      0.00%     63.46% # Class of committed instruction
system.cpu1.commit.op_class_0::SimdShift            0      0.00%     63.46% # Class of committed instruction
system.cpu1.commit.op_class_0::SimdShiftAcc            0      0.00%     63.46% # Class of committed instruction
system.cpu1.commit.op_class_0::SimdDiv              0      0.00%     63.46% # Class of committed instruction
system.cpu1.commit.op_class_0::SimdSqrt             0      0.00%     63.46% # Class of committed instruction
system.cpu1.commit.op_class_0::SimdFloatAdd            0      0.00%     63.46% # Class of committed instruction
system.cpu1.commit.op_class_0::SimdFloatAlu            0      0.00%     63.46% # Class of committed instruction
system.cpu1.commit.op_class_0::SimdFloatCmp            0      0.00%     63.46% # Class of committed instruction
system.cpu1.commit.op_class_0::SimdFloatCvt            0      0.00%     63.46% # Class of committed instruction
system.cpu1.commit.op_class_0::SimdFloatDiv            0      0.00%     63.46% # Class of committed instruction
system.cpu1.commit.op_class_0::SimdFloatMisc            0      0.00%     63.46% # Class of committed instruction
system.cpu1.commit.op_class_0::SimdFloatMult            0      0.00%     63.46% # Class of committed instruction
system.cpu1.commit.op_class_0::SimdFloatMultAcc            0      0.00%     63.46% # Class of committed instruction
system.cpu1.commit.op_class_0::SimdFloatSqrt            0      0.00%     63.46% # Class of committed instruction
system.cpu1.commit.op_class_0::SimdReduceAdd            0      0.00%     63.46% # Class of committed instruction
system.cpu1.commit.op_class_0::SimdReduceAlu            0      0.00%     63.46% # Class of committed instruction
system.cpu1.commit.op_class_0::SimdReduceCmp            0      0.00%     63.46% # Class of committed instruction
system.cpu1.commit.op_class_0::SimdFloatReduceAdd            0      0.00%     63.46% # Class of committed instruction
system.cpu1.commit.op_class_0::SimdFloatReduceCmp            0      0.00%     63.46% # Class of committed instruction
system.cpu1.commit.op_class_0::SimdAes              0      0.00%     63.46% # Class of committed instruction
system.cpu1.commit.op_class_0::SimdAesMix            0      0.00%     63.46% # Class of committed instruction
system.cpu1.commit.op_class_0::SimdSha1Hash            0      0.00%     63.46% # Class of committed instruction
system.cpu1.commit.op_class_0::SimdSha1Hash2            0      0.00%     63.46% # Class of committed instruction
system.cpu1.commit.op_class_0::SimdSha256Hash            0      0.00%     63.46% # Class of committed instruction
system.cpu1.commit.op_class_0::SimdSha256Hash2            0      0.00%     63.46% # Class of committed instruction
system.cpu1.commit.op_class_0::SimdShaSigma2            0      0.00%     63.46% # Class of committed instruction
system.cpu1.commit.op_class_0::SimdShaSigma3            0      0.00%     63.46% # Class of committed instruction
system.cpu1.commit.op_class_0::SimdPredAlu            0      0.00%     63.46% # Class of committed instruction
system.cpu1.commit.op_class_0::MemRead       10266464     30.85%     94.30% # Class of committed instruction
system.cpu1.commit.op_class_0::MemWrite       1895782      5.70%    100.00% # Class of committed instruction
system.cpu1.commit.op_class_0::FloatMemRead            0      0.00%    100.00% # Class of committed instruction
system.cpu1.commit.op_class_0::FloatMemWrite           12      0.00%    100.00% # Class of committed instruction
system.cpu1.commit.op_class_0::IprAccess            0      0.00%    100.00% # Class of committed instruction
system.cpu1.commit.op_class_0::InstPrefetch            0      0.00%    100.00% # Class of committed instruction
system.cpu1.commit.op_class_0::total         33280710                       # Class of committed instruction
system.cpu1.commit.refs                      12162258                       # Number of memory references committed
system.cpu1.commit.swp_count                        0                       # Number of s/w prefetches committed
system.cpu1.commit.vec_insts                        0                       # Number of committed Vector instructions.
system.cpu1.committedInsts                   32262608                       # Number of Instructions Simulated
system.cpu1.committedOps                     33280710                       # Number of Ops (including micro ops) Simulated
system.cpu1.cpi                              5.641479                       # CPI: Cycles Per Instruction
system.cpu1.cpi_total                        5.641479                       # CPI: Total CPI of All Threads
system.cpu1.decode.BlockedCycles            160579942                       # Number of cycles decode is blocked
system.cpu1.decode.BranchMispred               314381                       # Number of times decode detected a branch misprediction
system.cpu1.decode.BranchResolved             4310006                       # Number of times decode resolved a branch
system.cpu1.decode.DecodedInsts              39538455                       # Number of instructions handled by decode
system.cpu1.decode.IdleCycles                 5832495                       # Number of cycles decode is idle
system.cpu1.decode.RunCycles                 12689308                       # Number of cycles decode is running
system.cpu1.decode.SquashCycles                464103                       # Number of cycles decode is squashing
system.cpu1.decode.SquashedInsts               565569                       # Number of squashed instructions handled by decode
system.cpu1.decode.UnblockCycles              2295455                       # Number of cycles decode is unblocking
system.cpu1.dtb.accesses                            0                       # DTB accesses
system.cpu1.dtb.hits                                0                       # DTB hits
system.cpu1.dtb.misses                              0                       # DTB misses
system.cpu1.dtb.read_accesses                       0                       # DTB read accesses
system.cpu1.dtb.read_hits                           0                       # DTB read hits
system.cpu1.dtb.read_misses                         0                       # DTB read misses
system.cpu1.dtb.write_accesses                      0                       # DTB write accesses
system.cpu1.dtb.write_hits                          0                       # DTB write hits
system.cpu1.dtb.write_misses                        0                       # DTB write misses
system.cpu1.fetch.Branches                    8644901                       # Number of branches that fetch encountered
system.cpu1.fetch.CacheLines                  5055581                       # Number of cache lines fetched
system.cpu1.fetch.Cycles                    175634107                       # Number of cycles fetch has run and was not squashing or blocked
system.cpu1.fetch.IcacheSquashes                58147                       # Number of outstanding Icache misses that were squashed
system.cpu1.fetch.Insts                      40189953                       # Number of instructions fetch has processed
system.cpu1.fetch.MiscStallCycles                   1                       # Number of cycles fetch has spent waiting on interrupts, or bad addresses, or out of MSHRs
system.cpu1.fetch.SquashCycles                1552986                       # Number of cycles fetch has spent squashing
system.cpu1.fetch.branchRate                 0.047497                       # Number of branch fetches per cycle
system.cpu1.fetch.icacheStallCycles           5450702                       # Number of cycles fetch is stalled on an Icache miss
system.cpu1.fetch.predictedBranches           4691635                       # Number of branches that fetch has predicted taken
system.cpu1.fetch.rate                       0.220813                       # Number of inst fetches per cycle
system.cpu1.fetch.rateDist::samples         181861303                       # Number of instructions fetched each cycle (Total)
system.cpu1.fetch.rateDist::mean             0.226593                       # Number of instructions fetched each cycle (Total)
system.cpu1.fetch.rateDist::stdev            0.678442                       # Number of instructions fetched each cycle (Total)
system.cpu1.fetch.rateDist::underflows              0      0.00%      0.00% # Number of instructions fetched each cycle (Total)
system.cpu1.fetch.rateDist::0               157628844     86.68%     86.68% # Number of instructions fetched each cycle (Total)
system.cpu1.fetch.rateDist::1                13846095      7.61%     94.29% # Number of instructions fetched each cycle (Total)
system.cpu1.fetch.rateDist::2                 5653761      3.11%     97.40% # Number of instructions fetched each cycle (Total)
system.cpu1.fetch.rateDist::3                 3367122      1.85%     99.25% # Number of instructions fetched each cycle (Total)
system.cpu1.fetch.rateDist::4                  877477      0.48%     99.73% # Number of instructions fetched each cycle (Total)
system.cpu1.fetch.rateDist::5                  484850      0.27%    100.00% # Number of instructions fetched each cycle (Total)
system.cpu1.fetch.rateDist::6                    2887      0.00%    100.00% # Number of instructions fetched each cycle (Total)
system.cpu1.fetch.rateDist::7                     130      0.00%    100.00% # Number of instructions fetched each cycle (Total)
system.cpu1.fetch.rateDist::8                     137      0.00%    100.00% # Number of instructions fetched each cycle (Total)
system.cpu1.fetch.rateDist::overflows               0      0.00%    100.00% # Number of instructions fetched each cycle (Total)
system.cpu1.fetch.rateDist::min_value               0                       # Number of instructions fetched each cycle (Total)
system.cpu1.fetch.rateDist::max_value               8                       # Number of instructions fetched each cycle (Total)
system.cpu1.fetch.rateDist::total           181861303                       # Number of instructions fetched each cycle (Total)
system.cpu1.fp_regfile_reads                       12                       # number of floating regfile reads
system.cpu1.idleCycles                         147536                       # Total number of cycles that the CPU has spent unscheduled due to idling
system.cpu1.iew.branchMispredicts              495111                       # Number of branch mispredicts detected at execute
system.cpu1.iew.exec_branches                 7653309                       # Number of branches executed
system.cpu1.iew.exec_nop                            0                       # number of nop insts executed
system.cpu1.iew.exec_rate                    0.198748                       # Inst execution rate
system.cpu1.iew.exec_refs                    12945705                       # number of memory reference insts executed
system.cpu1.iew.exec_stores                   2944880                       # Number of stores executed
system.cpu1.iew.exec_swp                            0                       # number of swp insts executed
system.cpu1.iew.iewBlockCycles              139374518                       # Number of cycles IEW is blocking
system.cpu1.iew.iewDispLoadInsts             10272369                       # Number of dispatched load instructions
system.cpu1.iew.iewDispNonSpecInsts           1018564                       # Number of dispatched non-speculative instructions
system.cpu1.iew.iewDispSquashedInsts           245525                       # Number of squashed instructions skipped by dispatch
system.cpu1.iew.iewDispStoreInsts             2975615                       # Number of dispatched store instructions
system.cpu1.iew.iewDispatchedInsts           37846385                       # Number of instructions dispatched to IQ
system.cpu1.iew.iewExecLoadInsts             10000825                       # Number of load instructions executed
system.cpu1.iew.iewExecSquashedInsts           649269                       # Number of squashed instructions skipped in execute
system.cpu1.iew.iewExecutedInsts             36173972                       # Number of executed instructions
system.cpu1.iew.iewIQFullEvents                938324                       # Number of times the IQ has become full, causing a stall
system.cpu1.iew.iewIdleCycles                       0                       # Number of cycles IEW is idle
system.cpu1.iew.iewLSQFullEvents              1984618                       # Number of times the LSQ has become full, causing a stall
system.cpu1.iew.iewSquashCycles                464103                       # Number of cycles IEW is squashing
system.cpu1.iew.iewUnblockCycles              3976022                       # Number of cycles IEW is unblocking
system.cpu1.iew.lsq.thread0.blockedLoads            0                       # Number of blocked loads due to partial load-store forwarding
system.cpu1.iew.lsq.thread0.cacheBlocked        13021                       # Number of times an access to memory failed due to the cache being blocked
system.cpu1.iew.lsq.thread0.forwLoads          126830                       # Number of loads that had data forwarded from stores
system.cpu1.iew.lsq.thread0.ignoredResponses         3841                       # Number of memory responses ignored because the instruction is squashed
system.cpu1.iew.lsq.thread0.invAddrLoads            0                       # Number of loads ignored due to an invalid address
system.cpu1.iew.lsq.thread0.invAddrSwpfs            0                       # Number of software prefetches ignored due to an invalid address
system.cpu1.iew.lsq.thread0.memOrderViolation          125                       # Number of memory ordering violations
system.cpu1.iew.lsq.thread0.rescheduledLoads          256                       # Number of loads that were rescheduled
system.cpu1.iew.lsq.thread0.squashedLoads      1023831                       # Number of loads squashed
system.cpu1.iew.lsq.thread0.squashedStores        61895                       # Number of stores squashed
system.cpu1.iew.memOrderViolationEvents           125                       # Number of memory order violations
system.cpu1.iew.predictedNotTakenIncorrect        90491                       # Number of branches that were predicted not taken incorrectly
system.cpu1.iew.predictedTakenIncorrect        404620                       # Number of branches that were predicted taken incorrectly
system.cpu1.iew.wb_consumers                 20590187                       # num instructions consuming a value
system.cpu1.iew.wb_count                     35936181                       # cumulative count of insts written-back
system.cpu1.iew.wb_fanout                    0.881753                       # average fanout of values written-back
system.cpu1.iew.wb_producers                 18155463                       # num instructions producing a value
system.cpu1.iew.wb_rate                      0.197442                       # insts written-back per cycle
system.cpu1.iew.wb_sent                      35944194                       # cumulative count of insts sent to commit
system.cpu1.int_regfile_reads                44490350                       # number of integer regfile reads
system.cpu1.int_regfile_writes               24520204                       # number of integer regfile writes
system.cpu1.ipc                              0.177258                       # IPC: Instructions Per Cycle
system.cpu1.ipc_total                        0.177258                       # IPC: Total IPC of All Threads
system.cpu1.iq.FU_type_0::No_OpClass          2036073      5.53%      5.53% # Type of FU issued
system.cpu1.iq.FU_type_0::IntAlu             21755020     59.08%     64.61% # Type of FU issued
system.cpu1.iq.FU_type_0::IntMult                  45      0.00%     64.61% # Type of FU issued
system.cpu1.iq.FU_type_0::IntDiv                   86      0.00%     64.61% # Type of FU issued
system.cpu1.iq.FU_type_0::FloatAdd                  0      0.00%     64.61% # Type of FU issued
system.cpu1.iq.FU_type_0::FloatCmp                  0      0.00%     64.61% # Type of FU issued
system.cpu1.iq.FU_type_0::FloatCvt                  0      0.00%     64.61% # Type of FU issued
system.cpu1.iq.FU_type_0::FloatMult                 0      0.00%     64.61% # Type of FU issued
system.cpu1.iq.FU_type_0::FloatMultAcc              0      0.00%     64.61% # Type of FU issued
system.cpu1.iq.FU_type_0::FloatDiv                  0      0.00%     64.61% # Type of FU issued
system.cpu1.iq.FU_type_0::FloatMisc                 0      0.00%     64.61% # Type of FU issued
system.cpu1.iq.FU_type_0::FloatSqrt                 0      0.00%     64.61% # Type of FU issued
system.cpu1.iq.FU_type_0::SimdAdd                   0      0.00%     64.61% # Type of FU issued
system.cpu1.iq.FU_type_0::SimdAddAcc                0      0.00%     64.61% # Type of FU issued
system.cpu1.iq.FU_type_0::SimdAlu                   0      0.00%     64.61% # Type of FU issued
system.cpu1.iq.FU_type_0::SimdCmp                   0      0.00%     64.61% # Type of FU issued
system.cpu1.iq.FU_type_0::SimdCvt                   0      0.00%     64.61% # Type of FU issued
system.cpu1.iq.FU_type_0::SimdMisc                  0      0.00%     64.61% # Type of FU issued
system.cpu1.iq.FU_type_0::SimdMult                  0      0.00%     64.61% # Type of FU issued
system.cpu1.iq.FU_type_0::SimdMultAcc               0      0.00%     64.61% # Type of FU issued
system.cpu1.iq.FU_type_0::SimdShift                 0      0.00%     64.61% # Type of FU issued
system.cpu1.iq.FU_type_0::SimdShiftAcc              0      0.00%     64.61% # Type of FU issued
system.cpu1.iq.FU_type_0::SimdDiv                   0      0.00%     64.61% # Type of FU issued
system.cpu1.iq.FU_type_0::SimdSqrt                  0      0.00%     64.61% # Type of FU issued
system.cpu1.iq.FU_type_0::SimdFloatAdd              0      0.00%     64.61% # Type of FU issued
system.cpu1.iq.FU_type_0::SimdFloatAlu              0      0.00%     64.61% # Type of FU issued
system.cpu1.iq.FU_type_0::SimdFloatCmp              0      0.00%     64.61% # Type of FU issued
system.cpu1.iq.FU_type_0::SimdFloatCvt              0      0.00%     64.61% # Type of FU issued
system.cpu1.iq.FU_type_0::SimdFloatDiv              0      0.00%     64.61% # Type of FU issued
system.cpu1.iq.FU_type_0::SimdFloatMisc             0      0.00%     64.61% # Type of FU issued
system.cpu1.iq.FU_type_0::SimdFloatMult             0      0.00%     64.61% # Type of FU issued
system.cpu1.iq.FU_type_0::SimdFloatMultAcc            0      0.00%     64.61% # Type of FU issued
system.cpu1.iq.FU_type_0::SimdFloatSqrt             0      0.00%     64.61% # Type of FU issued
system.cpu1.iq.FU_type_0::SimdReduceAdd             0      0.00%     64.61% # Type of FU issued
system.cpu1.iq.FU_type_0::SimdReduceAlu             0      0.00%     64.61% # Type of FU issued
system.cpu1.iq.FU_type_0::SimdReduceCmp             0      0.00%     64.61% # Type of FU issued
system.cpu1.iq.FU_type_0::SimdFloatReduceAdd            0      0.00%     64.61% # Type of FU issued
system.cpu1.iq.FU_type_0::SimdFloatReduceCmp            0      0.00%     64.61% # Type of FU issued
system.cpu1.iq.FU_type_0::SimdAes                   0      0.00%     64.61% # Type of FU issued
system.cpu1.iq.FU_type_0::SimdAesMix                0      0.00%     64.61% # Type of FU issued
system.cpu1.iq.FU_type_0::SimdSha1Hash              0      0.00%     64.61% # Type of FU issued
system.cpu1.iq.FU_type_0::SimdSha1Hash2             0      0.00%     64.61% # Type of FU issued
system.cpu1.iq.FU_type_0::SimdSha256Hash            0      0.00%     64.61% # Type of FU issued
system.cpu1.iq.FU_type_0::SimdSha256Hash2            0      0.00%     64.61% # Type of FU issued
system.cpu1.iq.FU_type_0::SimdShaSigma2             0      0.00%     64.61% # Type of FU issued
system.cpu1.iq.FU_type_0::SimdShaSigma3             0      0.00%     64.61% # Type of FU issued
system.cpu1.iq.FU_type_0::SimdPredAlu               0      0.00%     64.61% # Type of FU issued
system.cpu1.iq.FU_type_0::MemRead            11098213     30.14%     94.75% # Type of FU issued
system.cpu1.iq.FU_type_0::MemWrite            1933792      5.25%    100.00% # Type of FU issued
system.cpu1.iq.FU_type_0::FloatMemRead              0      0.00%    100.00% # Type of FU issued
system.cpu1.iq.FU_type_0::FloatMemWrite            12      0.00%    100.00% # Type of FU issued
system.cpu1.iq.FU_type_0::IprAccess                 0      0.00%    100.00% # Type of FU issued
system.cpu1.iq.FU_type_0::InstPrefetch              0      0.00%    100.00% # Type of FU issued
system.cpu1.iq.FU_type_0::total              36823241                       # Type of FU issued
system.cpu1.iq.fp_alu_accesses                     14                       # Number of floating point alu accesses
system.cpu1.iq.fp_inst_queue_reads                 26                       # Number of floating instruction queue reads
system.cpu1.iq.fp_inst_queue_wakeup_accesses           12                       # Number of floating instruction queue wakeup accesses
system.cpu1.iq.fp_inst_queue_writes                12                       # Number of floating instruction queue writes
system.cpu1.iq.fu_busy_cnt                    1056142                       # FU busy when requested
system.cpu1.iq.fu_busy_rate                  0.028681                       # FU busy rate (busy events/executed inst)
system.cpu1.iq.fu_full::No_OpClass                  0      0.00%      0.00% # attempts to use FU when none available
system.cpu1.iq.fu_full::IntAlu                 184527     17.47%     17.47% # attempts to use FU when none available
system.cpu1.iq.fu_full::IntMult                     0      0.00%     17.47% # attempts to use FU when none available
system.cpu1.iq.fu_full::IntDiv                      0      0.00%     17.47% # attempts to use FU when none available
system.cpu1.iq.fu_full::FloatAdd                    0      0.00%     17.47% # attempts to use FU when none available
system.cpu1.iq.fu_full::FloatCmp                    0      0.00%     17.47% # attempts to use FU when none available
system.cpu1.iq.fu_full::FloatCvt                    0      0.00%     17.47% # attempts to use FU when none available
system.cpu1.iq.fu_full::FloatMult                   0      0.00%     17.47% # attempts to use FU when none available
system.cpu1.iq.fu_full::FloatMultAcc                0      0.00%     17.47% # attempts to use FU when none available
system.cpu1.iq.fu_full::FloatDiv                    0      0.00%     17.47% # attempts to use FU when none available
system.cpu1.iq.fu_full::FloatMisc                   0      0.00%     17.47% # attempts to use FU when none available
system.cpu1.iq.fu_full::FloatSqrt                   0      0.00%     17.47% # attempts to use FU when none available
system.cpu1.iq.fu_full::SimdAdd                     0      0.00%     17.47% # attempts to use FU when none available
system.cpu1.iq.fu_full::SimdAddAcc                  0      0.00%     17.47% # attempts to use FU when none available
system.cpu1.iq.fu_full::SimdAlu                     0      0.00%     17.47% # attempts to use FU when none available
system.cpu1.iq.fu_full::SimdCmp                     0      0.00%     17.47% # attempts to use FU when none available
system.cpu1.iq.fu_full::SimdCvt                     0      0.00%     17.47% # attempts to use FU when none available
system.cpu1.iq.fu_full::SimdMisc                    0      0.00%     17.47% # attempts to use FU when none available
system.cpu1.iq.fu_full::SimdMult                    0      0.00%     17.47% # attempts to use FU when none available
system.cpu1.iq.fu_full::SimdMultAcc                 0      0.00%     17.47% # attempts to use FU when none available
system.cpu1.iq.fu_full::SimdShift                   0      0.00%     17.47% # attempts to use FU when none available
system.cpu1.iq.fu_full::SimdShiftAcc                0      0.00%     17.47% # attempts to use FU when none available
system.cpu1.iq.fu_full::SimdDiv                     0      0.00%     17.47% # attempts to use FU when none available
system.cpu1.iq.fu_full::SimdSqrt                    0      0.00%     17.47% # attempts to use FU when none available
system.cpu1.iq.fu_full::SimdFloatAdd                0      0.00%     17.47% # attempts to use FU when none available
system.cpu1.iq.fu_full::SimdFloatAlu                0      0.00%     17.47% # attempts to use FU when none available
system.cpu1.iq.fu_full::SimdFloatCmp                0      0.00%     17.47% # attempts to use FU when none available
system.cpu1.iq.fu_full::SimdFloatCvt                0      0.00%     17.47% # attempts to use FU when none available
system.cpu1.iq.fu_full::SimdFloatDiv                0      0.00%     17.47% # attempts to use FU when none available
system.cpu1.iq.fu_full::SimdFloatMisc               0      0.00%     17.47% # attempts to use FU when none available
system.cpu1.iq.fu_full::SimdFloatMult               0      0.00%     17.47% # attempts to use FU when none available
system.cpu1.iq.fu_full::SimdFloatMultAcc            0      0.00%     17.47% # attempts to use FU when none available
system.cpu1.iq.fu_full::SimdFloatSqrt               0      0.00%     17.47% # attempts to use FU when none available
system.cpu1.iq.fu_full::SimdReduceAdd               0      0.00%     17.47% # attempts to use FU when none available
system.cpu1.iq.fu_full::SimdReduceAlu               0      0.00%     17.47% # attempts to use FU when none available
system.cpu1.iq.fu_full::SimdReduceCmp               0      0.00%     17.47% # attempts to use FU when none available
system.cpu1.iq.fu_full::SimdFloatReduceAdd            0      0.00%     17.47% # attempts to use FU when none available
system.cpu1.iq.fu_full::SimdFloatReduceCmp            0      0.00%     17.47% # attempts to use FU when none available
system.cpu1.iq.fu_full::SimdAes                     0      0.00%     17.47% # attempts to use FU when none available
system.cpu1.iq.fu_full::SimdAesMix                  0      0.00%     17.47% # attempts to use FU when none available
system.cpu1.iq.fu_full::SimdSha1Hash                0      0.00%     17.47% # attempts to use FU when none available
system.cpu1.iq.fu_full::SimdSha1Hash2               0      0.00%     17.47% # attempts to use FU when none available
system.cpu1.iq.fu_full::SimdSha256Hash              0      0.00%     17.47% # attempts to use FU when none available
system.cpu1.iq.fu_full::SimdSha256Hash2             0      0.00%     17.47% # attempts to use FU when none available
system.cpu1.iq.fu_full::SimdShaSigma2               0      0.00%     17.47% # attempts to use FU when none available
system.cpu1.iq.fu_full::SimdShaSigma3               0      0.00%     17.47% # attempts to use FU when none available
system.cpu1.iq.fu_full::SimdPredAlu                 0      0.00%     17.47% # attempts to use FU when none available
system.cpu1.iq.fu_full::MemRead                795644     75.33%     92.81% # attempts to use FU when none available
system.cpu1.iq.fu_full::MemWrite                75969      7.19%    100.00% # attempts to use FU when none available
[...]
system.cpu1.dcache.ReadReq_avg_miss_latency::total 59657.387179                       # average ReadReq miss latency
system.cpu1.dcache.ReadReq_mshr_hits::.cpu1.data      1634574                       # number of ReadReq MSHR hits
system.cpu1.dcache.ReadReq_mshr_hits::total      1634574                       # number of ReadReq MSHR hits
system.cpu1.dcache.ReadReq_mshr_misses::.cpu1.data      1038544                       # number of ReadReq MSHR misses
system.cpu1.dcache.ReadReq_mshr_misses::total      1038544                       # number of ReadReq MSHR misses
system.cpu1.dcache.ReadReq_mshr_miss_latency::.cpu1.data  66796453000                       # number of ReadReq MSHR miss cycles
system.cpu1.dcache.ReadReq_mshr_miss_latency::total  66796453000                       # number of ReadReq MSHR miss cycles
system.cpu1.dcache.ReadReq_mshr_miss_rate::.cpu1.data     0.052496                       # mshr miss rate for ReadReq accesses
system.cpu1.dcache.ReadReq_mshr_miss_rate::total     0.052496                       # mshr miss rate for ReadReq accesses
system.cpu1.dcache.ReadReq_avg_mshr_miss_latency::.cpu1.data 64317.403018                       # average ReadReq mshr miss latency
system.cpu1.dcache.ReadReq_avg_mshr_miss_latency::total 64317.403018                       # average ReadReq mshr miss latency
system.cpu1.dcache.WriteReq_hits::.cpu1.data       465898                       # number of WriteReq hits
system.cpu1.dcache.WriteReq_hits::total        465898                       # number of WriteReq hits
system.cpu1.dcache.WriteReq_misses::.cpu1.data       360201                       # number of WriteReq misses
system.cpu1.dcache.WriteReq_misses::total       360201                       # number of WriteReq misses
system.cpu1.dcache.WriteReq_miss_latency::.cpu1.data  19909115998                       # number of WriteReq miss cycles
system.cpu1.dcache.WriteReq_miss_latency::total  19909115998                       # number of WriteReq miss cycles
system.cpu1.dcache.WriteReq_accesses::.cpu1.data       826099                       # number of WriteReq accesses(hits+misses)
system.cpu1.dcache.WriteReq_accesses::total       826099                       # number of WriteReq accesses(hits+misses)
system.cpu1.dcache.WriteReq_miss_rate::.cpu1.data     0.436026                       # miss rate for WriteReq accesses
system.cpu1.dcache.WriteReq_miss_rate::total     0.436026                       # miss rate for WriteReq accesses
system.cpu1.dcache.WriteReq_avg_miss_latency::.cpu1.data 55272.239661                       # average WriteReq miss latency
system.cpu1.dcache.WriteReq_avg_miss_latency::total 55272.239661                       # average WriteReq miss latency
system.cpu1.dcache.WriteReq_mshr_hits::.cpu1.data       321182                       # number of WriteReq MSHR hits
system.cpu1.dcache.WriteReq_mshr_hits::total       321182                       # number of WriteReq MSHR hits
system.cpu1.dcache.WriteReq_mshr_misses::.cpu1.data        39019                       # number of WriteReq MSHR misses
system.cpu1.dcache.WriteReq_mshr_misses::total        39019                       # number of WriteReq MSHR misses
system.cpu1.dcache.WriteReq_mshr_miss_latency::.cpu1.data   1958245500                       # number of WriteReq MSHR miss cycles
system.cpu1.dcache.WriteReq_mshr_miss_latency::total   1958245500                       # number of WriteReq MSHR miss cycles
system.cpu1.dcache.WriteReq_mshr_miss_rate::.cpu1.data     0.047233                       # mshr miss rate for WriteReq accesses
system.cpu1.dcache.WriteReq_mshr_miss_rate::total     0.047233                       # mshr miss rate for WriteReq accesses
system.cpu1.dcache.WriteReq_avg_mshr_miss_latency::.cpu1.data 50186.973013                       # average WriteReq mshr miss latency
system.cpu1.dcache.WriteReq_avg_mshr_miss_latency::total 50186.973013                       # average WriteReq mshr miss latency
system.cpu1.dcache.LoadLockedReq_hits::.cpu1.data       552912                       # number of LoadLockedReq hits
system.cpu1.dcache.LoadLockedReq_hits::total       552912                       # number of LoadLockedReq hits
system.cpu1.dcache.LoadLockedReq_misses::.cpu1.data         6233                       # number of LoadLockedReq misses
system.cpu1.dcache.LoadLockedReq_misses::total         6233                       # number of LoadLockedReq misses
system.cpu1.dcache.LoadLockedReq_miss_latency::.cpu1.data    162441000                       # number of LoadLockedReq miss cycles
system.cpu1.dcache.LoadLockedReq_miss_latency::total    162441000                       # number of LoadLockedReq miss cycles
system.cpu1.dcache.LoadLockedReq_accesses::.cpu1.data       559145                       # number of LoadLockedReq accesses(hits+misses)
system.cpu1.dcache.LoadLockedReq_accesses::total       559145                       # number of LoadLockedReq accesses(hits+misses)
system.cpu1.dcache.LoadLockedReq_miss_rate::.cpu1.data     0.011147                       # miss rate for LoadLockedReq accesses
system.cpu1.dcache.LoadLockedReq_miss_rate::total     0.011147                       # miss rate for LoadLockedReq accesses
system.cpu1.dcache.LoadLockedReq_avg_miss_latency::.cpu1.data 26061.447136                       # average LoadLockedReq miss latency
system.cpu1.dcache.LoadLockedReq_avg_miss_latency::total 26061.447136                       # average LoadLockedReq miss latency
system.cpu1.dcache.LoadLockedReq_mshr_hits::.cpu1.data          116                       # number of LoadLockedReq MSHR hits
system.cpu1.dcache.LoadLockedReq_mshr_hits::total          116                       # number of LoadLockedReq MSHR hits
system.cpu1.dcache.LoadLockedReq_mshr_misses::.cpu1.data         6117                       # number of LoadLockedReq MSHR misses
system.cpu1.dcache.LoadLockedReq_mshr_misses::total         6117                       # number of LoadLockedReq MSHR misses
system.cpu1.dcache.LoadLockedReq_mshr_miss_latency::.cpu1.data    146093000                       # number of LoadLockedReq MSHR miss cycles
system.cpu1.dcache.LoadLockedReq_mshr_miss_latency::total    146093000                       # number of LoadLockedReq MSHR miss cycles
system.cpu1.dcache.LoadLockedReq_mshr_miss_rate::.cpu1.data     0.010940                       # mshr miss rate for LoadLockedReq accesses
system.cpu1.dcache.LoadLockedReq_mshr_miss_rate::total     0.010940                       # mshr miss rate for LoadLockedReq accesses
system.cpu1.dcache.LoadLockedReq_avg_mshr_miss_latency::.cpu1.data 23883.112637                       # average LoadLockedReq mshr miss latency
system.cpu1.dcache.LoadLockedReq_avg_mshr_miss_latency::total 23883.112637                       # average LoadLockedReq mshr miss latency
system.cpu1.dcache.StoreCondReq_hits::.cpu1.data       558674                       # number of StoreCondReq hits
system.cpu1.dcache.StoreCondReq_hits::total       558674                       # number of StoreCondReq hits
system.cpu1.dcache.StoreCondReq_misses::.cpu1.data          343                       # number of StoreCondReq misses
system.cpu1.dcache.StoreCondReq_misses::total          343                       # number of StoreCondReq misses
system.cpu1.dcache.StoreCondReq_miss_latency::.cpu1.data      3519000                       # number of StoreCondReq miss cycles
system.cpu1.dcache.StoreCondReq_miss_latency::total      3519000                       # number of StoreCondReq miss cycles
system.cpu1.dcache.StoreCondReq_accesses::.cpu1.data       559017                       # number of StoreCondReq accesses(hits+misses)
system.cpu1.dcache.StoreCondReq_accesses::total       559017                       # number of StoreCondReq accesses(hits+misses)
system.cpu1.dcache.StoreCondReq_miss_rate::.cpu1.data     0.000614                       # miss rate for StoreCondReq accesses
system.cpu1.dcache.StoreCondReq_miss_rate::total     0.000614                       # miss rate for StoreCondReq accesses
system.cpu1.dcache.StoreCondReq_avg_miss_latency::.cpu1.data 10259.475219                       # average StoreCondReq miss latency
system.cpu1.dcache.StoreCondReq_avg_miss_latency::total 10259.475219                       # average StoreCondReq miss latency
system.cpu1.dcache.StoreCondReq_mshr_misses::.cpu1.data          343                       # number of StoreCondReq MSHR misses
system.cpu1.dcache.StoreCondReq_mshr_misses::total          343                       # number of StoreCondReq MSHR misses
system.cpu1.dcache.StoreCondReq_mshr_miss_latency::.cpu1.data      3176000                       # number of StoreCondReq MSHR miss cycles
system.cpu1.dcache.StoreCondReq_mshr_miss_latency::total      3176000                       # number of StoreCondReq MSHR miss cycles
system.cpu1.dcache.StoreCondReq_mshr_miss_rate::.cpu1.data     0.000614                       # mshr miss rate for StoreCondReq accesses
system.cpu1.dcache.StoreCondReq_mshr_miss_rate::total     0.000614                       # mshr miss rate for StoreCondReq accesses
system.cpu1.dcache.StoreCondReq_avg_mshr_miss_latency::.cpu1.data  9259.475219                       # average StoreCondReq mshr miss latency
system.cpu1.dcache.StoreCondReq_avg_mshr_miss_latency::total  9259.475219                       # average StoreCondReq mshr miss latency
system.cpu1.dcache.SwapReq_hits::.cpu1.data          525                       # number of SwapReq hits
system.cpu1.dcache.SwapReq_hits::total            525                       # number of SwapReq hits
system.cpu1.dcache.SwapReq_misses::.cpu1.data          547                       # number of SwapReq misses
system.cpu1.dcache.SwapReq_misses::total          547                       # number of SwapReq misses
system.cpu1.dcache.SwapReq_miss_latency::.cpu1.data      6431500                       # number of SwapReq miss cycles
system.cpu1.dcache.SwapReq_miss_latency::total      6431500                       # number of SwapReq miss cycles
system.cpu1.dcache.SwapReq_accesses::.cpu1.data         1072                       # number of SwapReq accesses(hits+misses)
system.cpu1.dcache.SwapReq_accesses::total         1072                       # number of SwapReq accesses(hits+misses)
system.cpu1.dcache.SwapReq_miss_rate::.cpu1.data     0.510261                       # miss rate for SwapReq accesses
system.cpu1.dcache.SwapReq_miss_rate::total     0.510261                       # miss rate for SwapReq accesses
system.cpu1.dcache.SwapReq_avg_miss_latency::.cpu1.data 11757.769653                       # average SwapReq miss latency
system.cpu1.dcache.SwapReq_avg_miss_latency::total 11757.769653                       # average SwapReq miss latency
system.cpu1.dcache.SwapReq_mshr_misses::.cpu1.data          547                       # number of SwapReq MSHR misses
system.cpu1.dcache.SwapReq_mshr_misses::total          547                       # number of SwapReq MSHR misses
system.cpu1.dcache.SwapReq_mshr_miss_latency::.cpu1.data      5884500                       # number of SwapReq MSHR miss cycles
system.cpu1.dcache.SwapReq_mshr_miss_latency::total      5884500                       # number of SwapReq MSHR miss cycles
system.cpu1.dcache.SwapReq_mshr_miss_rate::.cpu1.data     0.510261                       # mshr miss rate for SwapReq accesses
system.cpu1.dcache.SwapReq_mshr_miss_rate::total     0.510261                       # mshr miss rate for SwapReq accesses
system.cpu1.dcache.SwapReq_avg_mshr_miss_latency::.cpu1.data 10757.769653                       # average SwapReq mshr miss latency
system.cpu1.dcache.SwapReq_avg_mshr_miss_latency::total 10757.769653                       # average SwapReq mshr miss latency
system.cpu1.dcache.tags.pwrStateResidencyTicks::UNDEFINED 107834808500                       # Cumulative time (in ticks) in various power states
system.cpu1.dcache.tags.tagsinuse           31.635133                       # Cycle average of tags in use
system.cpu1.dcache.tags.total_refs           19774432                       # Total number of references to valid blocks.
system.cpu1.dcache.tags.sampled_refs          1083849                       # Sample count of references to valid blocks.
system.cpu1.dcache.tags.avg_refs            18.244637                       # Average number of references to valid blocks.
system.cpu1.dcache.tags.warmup_cycle                0                       # Cycle when the warmup percentage was hit.
system.cpu1.dcache.tags.occ_blocks::.cpu1.data    31.635133                       # Average occupied blocks per requestor
system.cpu1.dcache.tags.occ_percent::.cpu1.data     0.988598                       # Average percentage of cache occupancy
system.cpu1.dcache.tags.occ_percent::total     0.988598                       # Average percentage of cache occupancy
system.cpu1.dcache.tags.occ_task_id_blocks::1024           27                       # Occupied blocks per task id
system.cpu1.dcache.tags.age_task_id_blocks_1024::1           27                       # Occupied blocks per task id
system.cpu1.dcache.tags.occ_task_id_percent::1024     0.843750                       # Percentage of cache occupancy per task id
system.cpu1.dcache.tags.tag_accesses         44541144                       # Number of tag accesses
system.cpu1.dcache.tags.data_accesses        44541144                       # Number of data accesses
system.cpu_clk_domain.clock                       500                       # Clock period in ticks
system.tol2bus.pwrStateResidencyTicks::UNDEFINED 107834808500                       # Cumulative time (in ticks) in various power states
system.tol2bus.trans_dist::ReadResp           2996199                       # Transaction distribution
system.tol2bus.trans_dist::WritebackDirty       770119                       # Transaction distribution
system.tol2bus.trans_dist::WritebackClean      2677973                       # Transaction distribution
system.tol2bus.trans_dist::CleanEvict         6138807                       # Transaction distribution
system.tol2bus.trans_dist::HardPFReq          4300008                       # Transaction distribution
system.tol2bus.trans_dist::HardPFResp               1                       # Transaction distribution
system.tol2bus.trans_dist::UpgradeReq            1115                       # Transaction distribution
system.tol2bus.trans_dist::SCUpgradeReq           915                       # Transaction distribution
system.tol2bus.trans_dist::UpgradeResp           2030                       # Transaction distribution
system.tol2bus.trans_dist::ReadExReq           101759                       # Transaction distribution
system.tol2bus.trans_dist::ReadExResp          101759                       # Transaction distribution
system.tol2bus.trans_dist::ReadCleanReq        230012                       # Transaction distribution
system.tol2bus.trans_dist::ReadSharedReq      2766188                       # Transaction distribution
system.tol2bus.trans_dist::InvalidateReq          174                       # Transaction distribution
system.tol2bus.trans_dist::InvalidateResp          174                       # Transaction distribution
system.tol2bus.pkt_count_system.cpu0.icache.mem_side::system.l2.cpu_side       675227                       # Packet count per connected master and slave (bytes)
system.tol2bus.pkt_count_system.cpu0.dcache.mem_side::system.l2.cpu_side      5352190                       # Packet count per connected master and slave (bytes)
system.tol2bus.pkt_count_system.cpu1.icache.mem_side::system.l2.cpu_side        14787                       # Packet count per connected master and slave (bytes)
system.tol2bus.pkt_count_system.cpu1.dcache.mem_side::system.l2.cpu_side      3249570                       # Packet count per connected master and slave (bytes)
system.tol2bus.pkt_count::total               9291774                       # Packet count per connected master and slave (bytes)
system.tol2bus.pkt_size_system.cpu0.icache.mem_side::system.l2.cpu_side     28809216                       # Cumulative packet size per connected master and slave (bytes)
system.tol2bus.pkt_size_system.cpu0.dcache.mem_side::system.l2.cpu_side    228226560                       # Cumulative packet size per connected master and slave (bytes)
system.tol2bus.pkt_size_system.cpu1.icache.mem_side::system.l2.cpu_side       630912                       # Cumulative packet size per connected master and slave (bytes)
system.tol2bus.pkt_size_system.cpu1.dcache.mem_side::system.l2.cpu_side    138547008                       # Cumulative packet size per connected master and slave (bytes)
system.tol2bus.pkt_size::total              396213696                       # Cumulative packet size per connected master and slave (bytes)
system.tol2bus.snoops                        10795460                       # Total snoops (count)
system.tol2bus.snoopTraffic                  22733632                       # Total snoop traffic (bytes)
system.tol2bus.snoop_fanout::samples         13891904                       # Request fanout histogram
system.tol2bus.snoop_fanout::mean            0.172019                       # Request fanout histogram
system.tol2bus.snoop_fanout::stdev           0.392602                       # Request fanout histogram
system.tol2bus.snoop_fanout::underflows             0      0.00%      0.00% # Request fanout histogram
system.tol2bus.snoop_fanout::0               11583548     83.38%     83.38% # Request fanout histogram
system.tol2bus.snoop_fanout::1                2227036     16.03%     99.41% # Request fanout histogram
system.tol2bus.snoop_fanout::2                  81320      0.59%    100.00% # Request fanout histogram
system.tol2bus.snoop_fanout::3                      0      0.00%    100.00% # Request fanout histogram
system.tol2bus.snoop_fanout::4                      0      0.00%    100.00% # Request fanout histogram
system.tol2bus.snoop_fanout::5                      0      0.00%    100.00% # Request fanout histogram
system.tol2bus.snoop_fanout::6                      0      0.00%    100.00% # Request fanout histogram
system.tol2bus.snoop_fanout::7                      0      0.00%    100.00% # Request fanout histogram
system.tol2bus.snoop_fanout::8                      0      0.00%    100.00% # Request fanout histogram
system.tol2bus.snoop_fanout::overflows              0      0.00%    100.00% # Request fanout histogram
system.tol2bus.snoop_fanout::min_value              0                       # Request fanout histogram
system.tol2bus.snoop_fanout::max_value              2                       # Request fanout histogram
system.tol2bus.snoop_fanout::total           13891904                       # Request fanout histogram
system.tol2bus.reqLayer0.occupancy         6194221233                       # Layer occupancy (ticks)
system.tol2bus.reqLayer0.utilization              5.7                       # Layer utilization (%)
system.tol2bus.respLayer1.occupancy        2678704906                       # Layer occupancy (ticks)
system.tol2bus.respLayer1.utilization             2.5                       # Layer utilization (%)
system.tol2bus.respLayer0.occupancy         337758728                       # Layer occupancy (ticks)
system.tol2bus.respLayer0.utilization             0.3                       # Layer utilization (%)
system.tol2bus.respLayer3.occupancy        1627291635                       # Layer occupancy (ticks)
system.tol2bus.respLayer3.utilization             1.5                       # Layer utilization (%)
system.tol2bus.respLayer2.occupancy           7407971                       # Layer occupancy (ticks)
system.tol2bus.respLayer2.utilization             0.0                       # Layer utilization (%)
system.tol2bus.snoopLayer0.occupancy             1500                       # Layer occupancy (ticks)
system.tol2bus.snoopLayer0.utilization            0.0                       # Layer utilization (%)

---------- End Simulation Statistics   ----------
