
---------- Begin Simulation Statistics ----------
final_tick                               1054430092500                       # Number of ticks from beginning of simulation (restored from checkpoints and never reset)
host_inst_rate                                 105493                       # Simulator instruction rate (inst/s)
host_mem_usage                                 739336                       # Number of bytes of host memory used
host_op_rate                                   105801                       # Simulator op (including micro ops) rate (op/s)
host_seconds                                 13659.08                       # Real time elapsed on the host
host_tick_rate                               77196279                       # Simulator tick rate (ticks/s)
sim_freq                                 1000000000000                       # Frequency of simulated ticks
sim_insts                                  1440936041                       # Number of instructions simulated
sim_ops                                    1445141039                       # Number of ops (including micro ops) simulated
sim_seconds                                  1.054430                       # Number of seconds simulated
sim_ticks                                1054430092500                       # Number of ticks simulated
system.cpu0.branchPred.BTBCorrect                   0                       # Number of correct BTB predictions (this stat may not work properly.
system.cpu0.branchPred.BTBHitPct            88.127929                       # BTB Hit Percentage
system.cpu0.branchPred.BTBHits              170927237                       # Number of BTB hits
system.cpu0.branchPred.BTBLookups           193953538                       # Number of BTB lookups
system.cpu0.branchPred.RASInCorrect                 0                       # Number of incorrect RAS predictions.
system.cpu0.branchPred.condIncorrect         15722267                       # Number of conditional branches incorrect
system.cpu0.branchPred.condPredicted        263498581                       # Number of conditional branches predicted
system.cpu0.branchPred.indirectHits          21820820                       # Number of indirect target hits.
system.cpu0.branchPred.indirectLookups       22466463                       # Number of indirect predictor lookups.
system.cpu0.branchPred.indirectMisses          645643                       # Number of indirect misses.
system.cpu0.branchPred.lookups              334140610                       # Number of BP lookups
system.cpu0.branchPred.usedRAS                      0                       # Number of times the RAS was used to get a target.
system.cpu0.branchPredindirectMispredicted      2148252                       # Number of mispredicted indirect branches.
system.cpu0.commit.amos                       1050448                       # Number of atomic instructions committed
system.cpu0.commit.branchMispredicts          9514713                       # The number of times a branch was mispredicted
system.cpu0.commit.branches                 313655072                       # Number of branches committed
system.cpu0.commit.bw_lim_events             33907527                       # number cycles where commit BW limit reached
system.cpu0.commit.commitNonSpecStalls        3160576                       # The number of times commit has been forced to stall to communicate backwards
system.cpu0.commit.commitSquashedInsts       64278188                       # The number of squashed insts skipped by commit
system.cpu0.commit.committedInsts          1250518519                       # Number of instructions committed
system.cpu0.commit.committedOps            1251572256                       # Number of ops (including micro ops) committed
system.cpu0.commit.committed_per_cycle::samples   1938437016                       # Number of insts commited each cycle
system.cpu0.commit.committed_per_cycle::mean     0.645661                       # Number of insts commited each cycle
system.cpu0.commit.committed_per_cycle::stdev     1.403061                       # Number of insts commited each cycle
system.cpu0.commit.committed_per_cycle::underflows            0      0.00%      0.00% # Number of insts commited each cycle
system.cpu0.commit.committed_per_cycle::0   1335723923     68.91%     68.91% # Number of insts commited each cycle
system.cpu0.commit.committed_per_cycle::1    358561420     18.50%     87.40% # Number of insts commited each cycle
system.cpu0.commit.committed_per_cycle::2     83893482      4.33%     91.73% # Number of insts commited each cycle
system.cpu0.commit.committed_per_cycle::3     82627218      4.26%     96.00% # Number of insts commited each cycle
system.cpu0.commit.committed_per_cycle::4     26135248      1.35%     97.34% # Number of insts commited each cycle
system.cpu0.commit.committed_per_cycle::5      8352888      0.43%     97.77% # Number of insts commited each cycle
system.cpu0.commit.committed_per_cycle::6      4870600      0.25%     98.03% # Number of insts commited each cycle
system.cpu0.commit.committed_per_cycle::7      4364710      0.23%     98.25% # Number of insts commited each cycle
system.cpu0.commit.committed_per_cycle::8     33907527      1.75%    100.00% # Number of insts commited each cycle
system.cpu0.commit.committed_per_cycle::overflows            0      0.00%    100.00% # Number of insts commited each cycle
system.cpu0.commit.committed_per_cycle::min_value            0                       # Number of insts commited each cycle
system.cpu0.commit.committed_per_cycle::max_value            8                       # Number of insts commited each cycle
system.cpu0.commit.committed_per_cycle::total   1938437016                       # Number of insts commited each cycle
system.cpu0.commit.fp_insts                        50                       # Number of committed floating point instructions.
system.cpu0.commit.function_calls            24112814                       # Number of function calls committed.
system.cpu0.commit.int_insts               1209818563                       # Number of committed integer instructions.
system.cpu0.commit.loads                    388697369                       # Number of loads committed
system.cpu0.commit.membars                    2104054                       # Number of memory barriers committed
system.cpu0.commit.op_class_0::No_OpClass      2104060      0.17%      0.17% # Class of committed instruction
system.cpu0.commit.op_class_0::IntAlu       699530917     55.89%     56.06% # Class of committed instruction
system.cpu0.commit.op_class_0::IntMult       11833132      0.95%     57.01% # Class of committed instruction
system.cpu0.commit.op_class_0::IntDiv         2099835      0.17%     57.17% # Class of committed instruction
system.cpu0.commit.op_class_0::FloatAdd             0      0.00%     57.17% # Class of committed instruction
system.cpu0.commit.op_class_0::FloatCmp             4      0.00%     57.17% # Class of committed instruction
system.cpu0.commit.op_class_0::FloatCvt            12      0.00%     57.17% # Class of committed instruction
system.cpu0.commit.op_class_0::FloatMult            0      0.00%     57.17% # Class of committed instruction
system.cpu0.commit.op_class_0::FloatMultAcc            0      0.00%     57.17% # Class of committed instruction
system.cpu0.commit.op_class_0::FloatDiv             2      0.00%     57.17% # Class of committed instruction
system.cpu0.commit.op_class_0::FloatMisc            4      0.00%     57.17% # Class of committed instruction
system.cpu0.commit.op_class_0::FloatSqrt            0      0.00%     57.17% # Class of committed instruction
system.cpu0.commit.op_class_0::SimdAdd              0      0.00%     57.17% # Class of committed instruction
system.cpu0.commit.op_class_0::SimdAddAcc            0      0.00%     57.17% # Class of committed instruction
system.cpu0.commit.op_class_0::SimdAlu              0      0.00%     57.17% # Class of committed instruction
system.cpu0.commit.op_class_0::SimdCmp              0      0.00%     57.17% # Class of committed instruction
system.cpu0.commit.op_class_0::SimdCvt              0      0.00%     57.17% # Class of committed instruction
system.cpu0.commit.op_class_0::SimdMisc             0      0.00%     57.17% # Class of committed instruction
system.cpu0.commit.op_class_0::SimdMult             0      0.00%     57.17% # Class of committed instruction
system.cpu0.commit.op_class_0::SimdMultAcc            0      0.00%     57.17% # Class of committed instruction
system.cpu0.commit.op_class_0::SimdShift            0      0.00%     57.17% # Class of committed instruction
system.cpu0.commit.op_class_0::SimdShiftAcc            0      0.00%     57.17% # Class of committed instruction
system.cpu0.commit.op_class_0::SimdDiv              0      0.00%     57.17% # Class of committed instruction
system.cpu0.commit.op_class_0::SimdSqrt             0      0.00%     57.17% # Class of committed instruction
system.cpu0.commit.op_class_0::SimdFloatAdd            0      0.00%     57.17% # Class of committed instruction
system.cpu0.commit.op_class_0::SimdFloatAlu            0      0.00%     57.17% # Class of committed instruction
system.cpu0.commit.op_class_0::SimdFloatCmp            0      0.00%     57.17% # Class of committed instruction
system.cpu0.commit.op_class_0::SimdFloatCvt            0      0.00%     57.17% # Class of committed instruction
system.cpu0.commit.op_class_0::SimdFloatDiv            0      0.00%     57.17% # Class of committed instruction
system.cpu0.commit.op_class_0::SimdFloatMisc            0      0.00%     57.17% # Class of committed instruction
system.cpu0.commit.op_class_0::SimdFloatMult            0      0.00%     57.17% # Class of committed instruction
system.cpu0.commit.op_class_0::SimdFloatMultAcc            0      0.00%     57.17% # Class of committed instruction
system.cpu0.commit.op_class_0::SimdFloatSqrt            0      0.00%     57.17% # Class of committed instruction
system.cpu0.commit.op_class_0::SimdReduceAdd            0      0.00%     57.17% # Class of committed instruction
system.cpu0.commit.op_class_0::SimdReduceAlu            0      0.00%     57.17% # Class of committed instruction
system.cpu0.commit.op_class_0::SimdReduceCmp            0      0.00%     57.17% # Class of committed instruction
system.cpu0.commit.op_class_0::SimdFloatReduceAdd            0      0.00%     57.17% # Class of committed instruction
system.cpu0.commit.op_class_0::SimdFloatReduceCmp            0      0.00%     57.17% # Class of committed instruction
system.cpu0.commit.op_class_0::SimdAes              0      0.00%     57.17% # Class of committed instruction
system.cpu0.commit.op_class_0::SimdAesMix            0      0.00%     57.17% # Class of committed instruction
system.cpu0.commit.op_class_0::SimdSha1Hash            0      0.00%     57.17% # Class of committed instruction
system.cpu0.commit.op_class_0::SimdSha1Hash2            0      0.00%     57.17% # Class of committed instruction
system.cpu0.commit.op_class_0::SimdSha256Hash            0      0.00%     57.17% # Class of committed instruction
system.cpu0.commit.op_class_0::SimdSha256Hash2            0      0.00%     57.17% # Class of committed instruction
system.cpu0.commit.op_class_0::SimdShaSigma2            0      0.00%     57.17% # Class of committed instruction
system.cpu0.commit.op_class_0::SimdShaSigma3            0      0.00%     57.17% # Class of committed instruction
system.cpu0.commit.op_class_0::SimdPredAlu            0      0.00%     57.17% # Class of committed instruction
system.cpu0.commit.op_class_0::MemRead      389747809     31.14%     88.31% # Class of committed instruction
system.cpu0.commit.op_class_0::MemWrite     146256453     11.69%    100.00% # Class of committed instruction
system.cpu0.commit.op_class_0::FloatMemRead            8      0.00%    100.00% # Class of committed instruction
system.cpu0.commit.op_class_0::FloatMemWrite           20      0.00%    100.00% # Class of committed instruction
system.cpu0.commit.op_class_0::IprAccess            0      0.00%    100.00% # Class of committed instruction
system.cpu0.commit.op_class_0::InstPrefetch            0      0.00%    100.00% # Class of committed instruction
system.cpu0.commit.op_class_0::total       1251572256                       # Class of committed instruction
system.cpu0.commit.refs                     536004290                       # Number of memory references committed
system.cpu0.commit.swp_count                        0                       # Number of s/w prefetches committed
system.cpu0.commit.vec_insts                        0                       # Number of committed Vector instructions.
system.cpu0.committedInsts                 1250518519                       # Number of Instructions Simulated
system.cpu0.committedOps                   1251572256                       # Number of Ops (including micro ops) Simulated
system.cpu0.cpi                              1.677514                       # CPI: Cycles Per Instruction
system.cpu0.cpi_total                        1.677514                       # CPI: Total CPI of All Threads
system.cpu0.decode.BlockedCycles            274484583                       # Number of cycles decode is blocked
system.cpu0.decode.BranchMispred              6229726                       # Number of times decode detected a branch misprediction
system.cpu0.decode.BranchResolved           168487959                       # Number of times decode resolved a branch
system.cpu0.decode.DecodedInsts            1336719353                       # Number of instructions handled by decode
system.cpu0.decode.IdleCycles               745430482                       # Number of cycles decode is idle
system.cpu0.decode.RunCycles                920377979                       # Number of cycles decode is running
system.cpu0.decode.SquashCycles               9523004                       # Number of cycles decode is squashing
system.cpu0.decode.SquashedInsts             14014605                       # Number of squashed instructions handled by decode
system.cpu0.decode.UnblockCycles              4351314                       # Number of cycles decode is unblocking
system.cpu0.dtb.accesses                            0                       # DTB accesses
system.cpu0.dtb.hits                                0                       # DTB hits
system.cpu0.dtb.misses                              0                       # DTB misses
system.cpu0.dtb.read_accesses                       0                       # DTB read accesses
system.cpu0.dtb.read_hits                           0                       # DTB read hits
system.cpu0.dtb.read_misses                         0                       # DTB read misses
system.cpu0.dtb.write_accesses                      0                       # DTB write accesses
system.cpu0.dtb.write_hits                          0                       # DTB write hits
system.cpu0.dtb.write_misses                        0                       # DTB write misses
system.cpu0.fetch.Branches                  334140610                       # Number of branches that fetch encountered
system.cpu0.fetch.CacheLines                236944387                       # Number of cache lines fetched
system.cpu0.fetch.Cycles                   1208941009                       # Number of cycles fetch has run and was not squashing or blocked
system.cpu0.fetch.IcacheSquashes              5788154                       # Number of outstanding Icache misses that were squashed
system.cpu0.fetch.IcacheWaitRetryStallCycles           81                       # Number of stall cycles due to full MSHR
system.cpu0.fetch.Insts                    1367700823                       # Number of instructions fetch has processed
system.cpu0.fetch.MiscStallCycles                  49                       # Number of cycles fetch has spent waiting on interrupts, or bad addresses, or out of MSHRs
system.cpu0.fetch.PendingTrapStallCycles          128                       # Number of stall cycles due to pending traps
system.cpu0.fetch.SquashCycles               31461158                       # Number of cycles fetch has spent squashing
system.cpu0.fetch.branchRate                 0.159284                       # Number of branch fetches per cycle
system.cpu0.fetch.icacheStallCycles         729495516                       # Number of cycles fetch is stalled on an Icache miss
system.cpu0.fetch.predictedBranches         192748057                       # Number of branches that fetch has predicted taken
system.cpu0.fetch.rate                       0.651981                       # Number of inst fetches per cycle
system.cpu0.fetch.rateDist::samples        1954167362                       # Number of instructions fetched each cycle (Total)
system.cpu0.fetch.rateDist::mean             0.701347                       # Number of instructions fetched each cycle (Total)
system.cpu0.fetch.rateDist::stdev            0.924268                       # Number of instructions fetched each cycle (Total)
system.cpu0.fetch.rateDist::underflows              0      0.00%      0.00% # Number of instructions fetched each cycle (Total)
system.cpu0.fetch.rateDist::0               991494867     50.74%     50.74% # Number of instructions fetched each cycle (Total)
system.cpu0.fetch.rateDist::1               713155490     36.49%     87.23% # Number of instructions fetched each cycle (Total)
system.cpu0.fetch.rateDist::2               127837709      6.54%     93.77% # Number of instructions fetched each cycle (Total)
system.cpu0.fetch.rateDist::3                98540131      5.04%     98.82% # Number of instructions fetched each cycle (Total)
system.cpu0.fetch.rateDist::4                16857767      0.86%     99.68% # Number of instructions fetched each cycle (Total)
system.cpu0.fetch.rateDist::5                 3230814      0.17%     99.84% # Number of instructions fetched each cycle (Total)
system.cpu0.fetch.rateDist::6                  945496      0.05%     99.89% # Number of instructions fetched each cycle (Total)
system.cpu0.fetch.rateDist::7                     440      0.00%     99.89% # Number of instructions fetched each cycle (Total)
system.cpu0.fetch.rateDist::8                 2104648      0.11%    100.00% # Number of instructions fetched each cycle (Total)
system.cpu0.fetch.rateDist::overflows               0      0.00%    100.00% # Number of instructions fetched each cycle (Total)
system.cpu0.fetch.rateDist::min_value               0                       # Number of instructions fetched each cycle (Total)
system.cpu0.fetch.rateDist::max_value               8                       # Number of instructions fetched each cycle (Total)
system.cpu0.fetch.rateDist::total          1954167362                       # Number of instructions fetched each cycle (Total)
system.cpu0.fp_regfile_reads                       44                       # number of floating regfile reads
system.cpu0.fp_regfile_writes                      24                       # number of floating regfile writes
system.cpu0.idleCycles                      143594722                       # Total number of cycles that the CPU has spent unscheduled due to idling
system.cpu0.iew.branchMispredicts             9589930                       # Number of branch mispredicts detected at execute
system.cpu0.iew.exec_branches               320900354                       # Number of branches executed
system.cpu0.iew.exec_nop                            0                       # number of nop insts executed
system.cpu0.iew.exec_rate                    0.618373                       # Inst execution rate
system.cpu0.iew.exec_refs                   563855697                       # number of memory reference insts executed
system.cpu0.iew.exec_stores                 151965567                       # Number of stores executed
system.cpu0.iew.exec_swp                            0                       # number of swp insts executed
system.cpu0.iew.iewBlockCycles              206243239                       # Number of cycles IEW is blocking
system.cpu0.iew.iewDispLoadInsts            414061126                       # Number of dispatched load instructions
system.cpu0.iew.iewDispNonSpecInsts           2091503                       # Number of dispatched non-speculative instructions
system.cpu0.iew.iewDispSquashedInsts          5137495                       # Number of squashed instructions skipped by dispatch
system.cpu0.iew.iewDispStoreInsts           154607223                       # Number of dispatched store instructions
system.cpu0.iew.iewDispatchedInsts         1315817132                       # Number of instructions dispatched to IQ
system.cpu0.iew.iewExecLoadInsts            411890130                       # Number of load instructions executed
system.cpu0.iew.iewExecSquashedInsts          4893216                       # Number of squashed instructions skipped in execute
system.cpu0.iew.iewExecutedInsts           1297199157                       # Number of executed instructions
system.cpu0.iew.iewIQFullEvents               1049744                       # Number of times the IQ has become full, causing a stall
system.cpu0.iew.iewIdleCycles                       0                       # Number of cycles IEW is idle
system.cpu0.iew.iewLSQFullEvents              6079731                       # Number of times the LSQ has become full, causing a stall
system.cpu0.iew.iewSquashCycles               9523004                       # Number of cycles IEW is squashing
system.cpu0.iew.iewUnblockCycles              8416789                       # Number of cycles IEW is unblocking
system.cpu0.iew.lsq.thread0.blockedLoads            0                       # Number of blocked loads due to partial load-store forwarding
system.cpu0.iew.lsq.thread0.cacheBlocked       382851                       # Number of times an access to memory failed due to the cache being blocked
system.cpu0.iew.lsq.thread0.forwLoads        21938805                       # Number of loads that had data forwarded from stores
system.cpu0.iew.lsq.thread0.ignoredResponses        74002                       # Number of memory responses ignored because the instruction is squashed
system.cpu0.iew.lsq.thread0.invAddrLoads            0                       # Number of loads ignored due to an invalid address
system.cpu0.iew.lsq.thread0.invAddrSwpfs            0                       # Number of software prefetches ignored due to an invalid address
system.cpu0.iew.lsq.thread0.memOrderViolation         7215                       # Number of memory ordering violations
system.cpu0.iew.lsq.thread0.rescheduledLoads      5035264                       # Number of loads that were rescheduled
system.cpu0.iew.lsq.thread0.squashedLoads     25363757                       # Number of loads squashed
system.cpu0.iew.lsq.thread0.squashedStores      7300302                       # Number of stores squashed
system.cpu0.iew.memOrderViolationEvents          7215                       # Number of memory order violations
system.cpu0.iew.predictedNotTakenIncorrect       406441                       # Number of branches that were predicted not taken incorrectly
system.cpu0.iew.predictedTakenIncorrect       9183489                       # Number of branches that were predicted taken incorrectly
system.cpu0.iew.wb_consumers                597078981                       # num instructions consuming a value
system.cpu0.iew.wb_count                   1287674109                       # cumulative count of insts written-back
system.cpu0.iew.wb_fanout                    0.837213                       # average fanout of values written-back
system.cpu0.iew.wb_producers                499882567                       # num instructions producing a value
system.cpu0.iew.wb_rate                      0.613832                       # insts written-back per cycle
system.cpu0.iew.wb_sent                    1287750519                       # cumulative count of insts sent to commit
system.cpu0.int_regfile_reads              1592481317                       # number of integer regfile reads
system.cpu0.int_regfile_writes              825028814                       # number of integer regfile writes
system.cpu0.ipc                              0.596120                       # IPC: Instructions Per Cycle
system.cpu0.ipc_total                        0.596120                       # IPC: Total IPC of All Threads
system.cpu0.iq.FU_type_0::No_OpClass          2106106      0.16%      0.16% # Type of FU issued
system.cpu0.iq.FU_type_0::IntAlu            720316202     55.32%     55.48% # Type of FU issued
system.cpu0.iq.FU_type_0::IntMult            11848903      0.91%     56.39% # Type of FU issued
system.cpu0.iq.FU_type_0::IntDiv              2100455      0.16%     56.55% # Type of FU issued
system.cpu0.iq.FU_type_0::FloatAdd                  0      0.00%     56.55% # Type of FU issued
system.cpu0.iq.FU_type_0::FloatCmp                  4      0.00%     56.55% # Type of FU issued
system.cpu0.iq.FU_type_0::FloatCvt                 12      0.00%     56.55% # Type of FU issued
system.cpu0.iq.FU_type_0::FloatMult                 0      0.00%     56.55% # Type of FU issued
system.cpu0.iq.FU_type_0::FloatMultAcc              0      0.00%     56.55% # Type of FU issued
system.cpu0.iq.FU_type_0::FloatDiv                  2      0.00%     56.55% # Type of FU issued
system.cpu0.iq.FU_type_0::FloatMisc                 4      0.00%     56.55% # Type of FU issued
system.cpu0.iq.FU_type_0::FloatSqrt                 0      0.00%     56.55% # Type of FU issued
system.cpu0.iq.FU_type_0::SimdAdd                   0      0.00%     56.55% # Type of FU issued
system.cpu0.iq.FU_type_0::SimdAddAcc                0      0.00%     56.55% # Type of FU issued
system.cpu0.iq.FU_type_0::SimdAlu                   0      0.00%     56.55% # Type of FU issued
system.cpu0.iq.FU_type_0::SimdCmp                   0      0.00%     56.55% # Type of FU issued
system.cpu0.iq.FU_type_0::SimdCvt                   0      0.00%     56.55% # Type of FU issued
system.cpu0.iq.FU_type_0::SimdMisc                  0      0.00%     56.55% # Type of FU issued
system.cpu0.iq.FU_type_0::SimdMult                  0      0.00%     56.55% # Type of FU issued
system.cpu0.iq.FU_type_0::SimdMultAcc               0      0.00%     56.55% # Type of FU issued
system.cpu0.iq.FU_type_0::SimdShift                 0      0.00%     56.55% # Type of FU issued
system.cpu0.iq.FU_type_0::SimdShiftAcc              0      0.00%     56.55% # Type of FU issued
system.cpu0.iq.FU_type_0::SimdDiv                   0      0.00%     56.55% # Type of FU issued
system.cpu0.iq.FU_type_0::SimdSqrt                  0      0.00%     56.55% # Type of FU issued
system.cpu0.iq.FU_type_0::SimdFloatAdd              0      0.00%     56.55% # Type of FU issued
system.cpu0.iq.FU_type_0::SimdFloatAlu              0      0.00%     56.55% # Type of FU issued
system.cpu0.iq.FU_type_0::SimdFloatCmp              0      0.00%     56.55% # Type of FU issued
system.cpu0.iq.FU_type_0::SimdFloatCvt              0      0.00%     56.55% # Type of FU issued
system.cpu0.iq.FU_type_0::SimdFloatDiv              0      0.00%     56.55% # Type of FU issued
system.cpu0.iq.FU_type_0::SimdFloatMisc             0      0.00%     56.55% # Type of FU issued
system.cpu0.iq.FU_type_0::SimdFloatMult             0      0.00%     56.55% # Type of FU issued
system.cpu0.iq.FU_type_0::SimdFloatMultAcc            0      0.00%     56.55% # Type of FU issued
system.cpu0.iq.FU_type_0::SimdFloatSqrt             0      0.00%     56.55% # Type of FU issued
system.cpu0.iq.FU_type_0::SimdReduceAdd             0      0.00%     56.55% # Type of FU issued
system.cpu0.iq.FU_type_0::SimdReduceAlu             0      0.00%     56.55% # Type of FU issued
system.cpu0.iq.FU_type_0::SimdReduceCmp             0      0.00%     56.55% # Type of FU issued
system.cpu0.iq.FU_type_0::SimdFloatReduceAdd            0      0.00%     56.55% # Type of FU issued
system.cpu0.iq.FU_type_0::SimdFloatReduceCmp            0      0.00%     56.55% # Type of FU issued
system.cpu0.iq.FU_type_0::SimdAes                   0      0.00%     56.55% # Type of FU issued
system.cpu0.iq.FU_type_0::SimdAesMix                0      0.00%     56.55% # Type of FU issued
system.cpu0.iq.FU_type_0::SimdSha1Hash              0      0.00%     56.55% # Type of FU issued
system.cpu0.iq.FU_type_0::SimdSha1Hash2             0      0.00%     56.55% # Type of FU issued
system.cpu0.iq.FU_type_0::SimdSha256Hash            0      0.00%     56.55% # Type of FU issued
system.cpu0.iq.FU_type_0::SimdSha256Hash2            0      0.00%     56.55% # Type of FU issued
system.cpu0.iq.FU_type_0::SimdShaSigma2             0      0.00%     56.55% # Type of FU issued
system.cpu0.iq.FU_type_0::SimdShaSigma3             0      0.00%     56.55% # Type of FU issued
system.cpu0.iq.FU_type_0::SimdPredAlu               0      0.00%     56.55% # Type of FU issued
system.cpu0.iq.FU_type_0::MemRead           414675267     31.85%     88.40% # Type of FU issued
system.cpu0.iq.FU_type_0::MemWrite          151045388     11.60%    100.00% # Type of FU issued
system.cpu0.iq.FU_type_0::FloatMemRead             10      0.00%    100.00% # Type of FU issued
system.cpu0.iq.FU_type_0::FloatMemWrite            20      0.00%    100.00% # Type of FU issued
system.cpu0.iq.FU_type_0::IprAccess                 0      0.00%    100.00% # Type of FU issued
system.cpu0.iq.FU_type_0::InstPrefetch              0      0.00%    100.00% # Type of FU issued
system.cpu0.iq.FU_type_0::total            1302092373                       # Type of FU issued
system.cpu0.iq.fp_alu_accesses                     56                       # Number of floating point alu accesses
system.cpu0.iq.fp_inst_queue_reads                108                       # Number of floating instruction queue reads
system.cpu0.iq.fp_inst_queue_wakeup_accesses           52                       # Number of floating instruction queue wakeup accesses
system.cpu0.iq.fp_inst_queue_writes                54                       # Number of floating instruction queue writes
system.cpu0.iq.fu_busy_cnt                    1859067                       # FU busy when requested
system.cpu0.iq.fu_busy_rate                  0.001428                       # FU busy rate (busy events/executed inst)
system.cpu0.iq.fu_full::No_OpClass                  0      0.00%      0.00% # attempts to use FU when none available
system.cpu0.iq.fu_full::IntAlu                 351498     18.91%     18.91% # attempts to use FU when none available
system.cpu0.iq.fu_full::IntMult                    19      0.00%     18.91% # attempts to use FU when none available
system.cpu0.iq.fu_full::IntDiv                      0      0.00%     18.91% # attempts to use FU when none available
system.cpu0.iq.fu_full::FloatAdd                    0      0.00%     18.91% # attempts to use FU when none available
system.cpu0.iq.fu_full::FloatCmp                    0      0.00%     18.91% # attempts to use FU when none available
system.cpu0.iq.fu_full::FloatCvt                    0      0.00%     18.91% # attempts to use FU when none available
system.cpu0.iq.fu_full::FloatMult                   0      0.00%     18.91% # attempts to use FU when none available
system.cpu0.iq.fu_full::FloatMultAcc                0      0.00%     18.91% # attempts to use FU when none available
system.cpu0.iq.fu_full::FloatDiv                    0      0.00%     18.91% # attempts to use FU when none available
system.cpu0.iq.fu_full::FloatMisc                   0      0.00%     18.91% # attempts to use FU when none available
system.cpu0.iq.fu_full::FloatSqrt                   0      0.00%     18.91% # attempts to use FU when none available
system.cpu0.iq.fu_full::SimdAdd                     0      0.00%     18.91% # attempts to use FU when none available
system.cpu0.iq.fu_full::SimdAddAcc                  0      0.00%     18.91% # attempts to use FU when none available
system.cpu0.iq.fu_full::SimdAlu                     0      0.00%     18.91% # attempts to use FU when none available
system.cpu0.iq.fu_full::SimdCmp                     0      0.00%     18.91% # attempts to use FU when none available
system.cpu0.iq.fu_full::SimdCvt                     0      0.00%     18.91% # attempts to use FU when none available
system.cpu0.iq.fu_full::SimdMisc                    0      0.00%     18.91% # attempts to use FU when none available
system.cpu0.iq.fu_full::SimdMult                    0      0.00%     18.91% # attempts to use FU when none available
system.cpu0.iq.fu_full::SimdMultAcc                 0      0.00%     18.91% # attempts to use FU when none available
system.cpu0.iq.fu_full::SimdShift                   0      0.00%     18.91% # attempts to use FU when none available
system.cpu0.iq.fu_full::SimdShiftAcc                0      0.00%     18.91% # attempts to use FU when none available
system.cpu0.iq.fu_full::SimdDiv                     0      0.00%     18.91% # attempts to use FU when none available
system.cpu0.iq.fu_full::SimdSqrt                    0      0.00%     18.91% # attempts to use FU when none available
system.cpu0.iq.fu_full::SimdFloatAdd                0      0.00%     18.91% # attempts to use FU when none available
system.cpu0.iq.fu_full::SimdFloatAlu                0      0.00%     18.91% # attempts to use FU when none available
system.cpu0.iq.fu_full::SimdFloatCmp                0      0.00%     18.91% # attempts to use FU when none available
system.cpu0.iq.fu_full::SimdFloatCvt                0      0.00%     18.91% # attempts to use FU when none available
system.cpu0.iq.fu_full::SimdFloatDiv                0      0.00%     18.91% # attempts to use FU when none available
system.cpu0.iq.fu_full::SimdFloatMisc               0      0.00%     18.91% # attempts to use FU when none available
system.cpu0.iq.fu_full::SimdFloatMult               0      0.00%     18.91% # attempts to use FU when none available
system.cpu0.iq.fu_full::SimdFloatMultAcc            0      0.00%     18.91% # attempts to use FU when none available
system.cpu0.iq.fu_full::SimdFloatSqrt               0      0.00%     18.91% # attempts to use FU when none available
system.cpu0.iq.fu_full::SimdReduceAdd               0      0.00%     18.91% # attempts to use FU when none available
system.cpu0.iq.fu_full::SimdReduceAlu               0      0.00%     18.91% # attempts to use FU when none available
system.cpu0.iq.fu_full::SimdReduceCmp               0      0.00%     18.91% # attempts to use FU when none available
system.cpu0.iq.fu_full::SimdFloatReduceAdd            0      0.00%     18.91% # attempts to use FU when none available
system.cpu0.iq.fu_full::SimdFloatReduceCmp            0      0.00%     18.91% # attempts to use FU when none available
system.cpu0.iq.fu_full::SimdAes                     0      0.00%     18.91% # attempts to use FU when none available
system.cpu0.iq.fu_full::SimdAesMix                  0      0.00%     18.91% # attempts to use FU when none available
system.cpu0.iq.fu_full::SimdSha1Hash                0      0.00%     18.91% # attempts to use FU when none available
system.cpu0.iq.fu_full::SimdSha1Hash2               0      0.00%     18.91% # attempts to use FU when none available
system.cpu0.iq.fu_full::SimdSha256Hash              0      0.00%     18.91% # attempts to use FU when none available
system.cpu0.iq.fu_full::SimdSha256Hash2             0      0.00%     18.91% # attempts to use FU when none available
system.cpu0.iq.fu_full::SimdShaSigma2               0      0.00%     18.91% # attempts to use FU when none available
system.cpu0.iq.fu_full::SimdShaSigma3               0      0.00%     18.91% # attempts to use FU when none available
system.cpu0.iq.fu_full::SimdPredAlu                 0      0.00%     18.91% # attempts to use FU when none available
system.cpu0.iq.fu_full::MemRead               1211738     65.18%     84.09% # attempts to use FU when none available
system.cpu0.iq.fu_full::MemWrite               295808     15.91%    100.00% # attempts to use FU when none available
system.cpu0.iq.fu_full::FloatMemRead                0      0.00%    100.00% # attempts to use FU when none available
system.cpu0.iq.fu_full::FloatMemWrite               4      0.00%    100.00% # attempts to use FU when none available
system.cpu0.iq.fu_full::IprAccess                   0      0.00%    100.00% # attempts to use FU when none available
system.cpu0.iq.fu_full::InstPrefetch                0      0.00%    100.00% # attempts to use FU when none available
system.cpu0.iq.int_alu_accesses            1301845278                       # Number of integer alu accesses
system.cpu0.iq.int_inst_queue_reads        4560343831                       # Number of integer instruction queue reads
system.cpu0.iq.int_inst_queue_wakeup_accesses   1287674057                       # Number of integer instruction queue wakeup accesses
system.cpu0.iq.int_inst_queue_writes       1380068893                       # Number of integer instruction queue writes
system.cpu0.iq.iqInstsAdded                1309551876                       # Number of instructions added to the IQ (excludes non-spec)
system.cpu0.iq.iqInstsIssued               1302092373                       # Number of instructions issued
system.cpu0.iq.iqNonSpecInstsAdded            6265256                       # Number of non-speculative instructions added to the IQ
system.cpu0.iq.iqSquashedInstsExamined       64244873                       # Number of squashed instructions iterated over during squash; mainly for profiling
system.cpu0.iq.iqSquashedInstsIssued           132764                       # Number of squashed instructions issued
system.cpu0.iq.iqSquashedNonSpecRemoved       3104680                       # Number of squashed non-spec instructions that were removed
system.cpu0.iq.iqSquashedOperandsExamined     27799716                       # Number of squashed operands that are examined and possibly removed from graph
system.cpu0.iq.issued_per_cycle::samples   1954167362                       # Number of insts issued each cycle
system.cpu0.iq.issued_per_cycle::mean        0.666316                       # Number of insts issued each cycle
system.cpu0.iq.issued_per_cycle::stdev       0.871311                       # Number of insts issued each cycle
system.cpu0.iq.issued_per_cycle::underflows            0      0.00%      0.00% # Number of insts issued each cycle
system.cpu0.iq.issued_per_cycle::0         1050868060     53.78%     53.78% # Number of insts issued each cycle
system.cpu0.iq.issued_per_cycle::1          607432920     31.08%     84.86% # Number of insts issued each cycle
system.cpu0.iq.issued_per_cycle::2          208667157     10.68%     95.54% # Number of insts issued each cycle
system.cpu0.iq.issued_per_cycle::3           75782951      3.88%     99.42% # Number of insts issued each cycle
system.cpu0.iq.issued_per_cycle::4            9059222      0.46%     99.88% # Number of insts issued each cycle
system.cpu0.iq.issued_per_cycle::5            1047917      0.05%     99.93% # Number of insts issued each cycle
system.cpu0.iq.issued_per_cycle::6             848488      0.04%     99.98% # Number of insts issued each cycle
system.cpu0.iq.issued_per_cycle::7             276291      0.01%     99.99% # Number of insts issued each cycle
system.cpu0.iq.issued_per_cycle::8             184356      0.01%    100.00% # Number of insts issued each cycle
system.cpu0.iq.issued_per_cycle::overflows            0      0.00%    100.00% # Number of insts issued each cycle
system.cpu0.iq.issued_per_cycle::min_value            0                       # Number of insts issued each cycle
system.cpu0.iq.issued_per_cycle::max_value            8                       # Number of insts issued each cycle
system.cpu0.iq.issued_per_cycle::total     1954167362                       # Number of insts issued each cycle
system.cpu0.iq.rate                          0.620705                       # Inst issue rate
system.cpu0.iq.vec_alu_accesses                     0                       # Number of vector alu accesses
system.cpu0.iq.vec_inst_queue_reads                 0                       # Number of vector instruction queue reads
system.cpu0.iq.vec_inst_queue_wakeup_accesses            0                       # Number of vector instruction queue wakeup accesses
system.cpu0.iq.vec_inst_queue_writes                0                       # Number of vector instruction queue writes
system.cpu0.itb.accesses                            0                       # DTB accesses
system.cpu0.itb.hits                                0                       # DTB hits
system.cpu0.itb.misses                              0                       # DTB misses
system.cpu0.itb.read_accesses                       0                       # DTB read accesses
system.cpu0.itb.read_hits                           0                       # DTB read hits
system.cpu0.itb.read_misses                         0                       # DTB read misses
system.cpu0.itb.write_accesses                      0                       # DTB write accesses
system.cpu0.itb.write_hits                          0                       # DTB write hits
system.cpu0.itb.write_misses                        0                       # DTB write misses
system.cpu0.memDep0.conflictingLoads         16362610                       # Number of conflicting loads.
system.cpu0.memDep0.conflictingStores         3629522                       # Number of conflicting stores.
system.cpu0.memDep0.insertedLoads           414061126                       # Number of loads inserted to the mem dependence unit.
system.cpu0.memDep0.insertedStores          154607223                       # Number of stores inserted to the mem dependence unit.
system.cpu0.misc_regfile_reads                   2058                       # number of misc regfile reads
system.cpu0.misc_regfile_writes                    22                       # number of misc regfile writes
system.cpu0.numCycles                      2097762084                       # number of cpu cycles simulated
system.cpu0.numWorkItemsCompleted                   0                       # number of work items this cpu completed
system.cpu0.numWorkItemsStarted                     0                       # number of work items this cpu started
system.cpu0.quiesceCycles                    11098235                       # Total number of cycles that CPU has spent quiesced or waiting for an interrupt
system.cpu0.rename.BlockCycles              221425025                       # Number of cycles rename is blocking
system.cpu0.rename.CommittedMaps            800543753                       # Number of HB maps that are committed
system.cpu0.rename.IQFullEvents               6876421                       # Number of times rename has blocked due to IQ full
system.cpu0.rename.IdleCycles               756982214                       # Number of cycles rename is idle
system.cpu0.rename.LQFullEvents              15441624                       # Number of times rename has blocked due to LQ full
system.cpu0.rename.ROBFullEvents                14892                       # Number of times rename has blocked due to ROB full
system.cpu0.rename.RenameLookups           1632834807                       # Number of register rename lookups that rename has made
system.cpu0.rename.RenamedInsts            1331284599                       # Number of instructions processed by rename
system.cpu0.rename.RenamedOperands          858920937                       # Number of destination operands rename has renamed
system.cpu0.rename.RunCycles                912018434                       # Number of cycles rename is running
system.cpu0.rename.SQFullEvents              30804144                       # Number of times rename has blocked due to SQ full
system.cpu0.rename.SquashCycles               9523004                       # Number of cycles rename is squashing
system.cpu0.rename.UnblockCycles             54046462                       # Number of cycles rename is unblocking
system.cpu0.rename.UndoneMaps                58377180                       # Number of HB maps that are undone due to squashing
system.cpu0.rename.fp_rename_lookups               44                       # Number of floating rename lookups
system.cpu0.rename.int_rename_lookups      1632834763                       # Number of integer rename lookups
system.cpu0.rename.serializeStallCycles        172223                       # count of cycles rename stalled for serializing inst
system.cpu0.rename.serializingInsts              6192                       # count of serializing insts renamed
system.cpu0.rename.skidInsts                 18541743                       # count of insts added to the skid buffer
system.cpu0.rename.tempSerializingInsts          6178                       # count of temporary serializing insts renamed
system.cpu0.rob.rob_reads                  3220353725                       # The number of ROB reads
system.cpu0.rob.rob_writes                 2647446950                       # The number of ROB writes
system.cpu0.timesIdled                       22280539                       # Number of times that the entire CPU went into an idle state and unscheduled itself
system.cpu0.workload.numSyscalls                 2025                       # Number of system calls
system.cpu1.branchPred.BTBCorrect                   0                       # Number of correct BTB predictions (this stat may not work properly.
system.cpu1.branchPred.BTBHitPct            87.755431                       # BTB Hit Percentage
system.cpu1.branchPred.BTBHits               12612989                       # Number of BTB hits
system.cpu1.branchPred.BTBLookups            14372887                       # Number of BTB lookups
system.cpu1.branchPred.RASInCorrect                 0                       # Number of incorrect RAS predictions.
system.cpu1.branchPred.condIncorrect          2173252                       # Number of conditional branches incorrect
system.cpu1.branchPred.condPredicted         19307719                       # Number of conditional branches predicted
system.cpu1.branchPred.indirectHits            669754                       # Number of indirect target hits.
system.cpu1.branchPred.indirectLookups         799843                       # Number of indirect predictor lookups.
system.cpu1.branchPred.indirectMisses          130089                       # Number of indirect misses.
system.cpu1.branchPred.lookups               22510516                       # Number of BP lookups
system.cpu1.branchPred.usedRAS                      0                       # Number of times the RAS was used to get a target.
system.cpu1.branchPredindirectMispredicted        41585                       # Number of mispredicted indirect branches.
system.cpu1.commit.amos                       1050241                       # Number of atomic instructions committed
system.cpu1.commit.branchMispredicts          1563303                       # The number of times a branch was mispredicted
system.cpu1.commit.branches                  16229370                       # Number of branches committed
system.cpu1.commit.bw_lim_events              2077040                       # number cycles where commit BW limit reached
system.cpu1.commit.commitNonSpecStalls        3151451                       # The number of times commit has been forced to stall to communicate backwards
system.cpu1.commit.commitSquashedInsts       14541713                       # The number of squashed insts skipped by commit
system.cpu1.commit.committedInsts            67683144                       # Number of instructions committed
system.cpu1.commit.committedOps              68733607                       # Number of ops (including micro ops) committed
system.cpu1.commit.committed_per_cycle::samples    307160638                       # Number of insts commited each cycle
system.cpu1.commit.committed_per_cycle::mean     0.223771                       # Number of insts commited each cycle
system.cpu1.commit.committed_per_cycle::stdev     0.937893                       # Number of insts commited each cycle
system.cpu1.commit.committed_per_cycle::underflows            0      0.00%      0.00% # Number of insts commited each cycle
system.cpu1.commit.committed_per_cycle::0    278390924     90.63%     90.63% # Number of insts commited each cycle
system.cpu1.commit.committed_per_cycle::1     14483127      4.72%     95.35% # Number of insts commited each cycle
system.cpu1.commit.committed_per_cycle::2      5271990      1.72%     97.07% # Number of insts commited each cycle
system.cpu1.commit.committed_per_cycle::3      4049613      1.32%     98.38% # Number of insts commited each cycle
system.cpu1.commit.committed_per_cycle::4      1115312      0.36%     98.75% # Number of insts commited each cycle
system.cpu1.commit.committed_per_cycle::5       494150      0.16%     98.91% # Number of insts commited each cycle
system.cpu1.commit.committed_per_cycle::6       940031      0.31%     99.21% # Number of insts commited each cycle
system.cpu1.commit.committed_per_cycle::7       338451      0.11%     99.32% # Number of insts commited each cycle
system.cpu1.commit.committed_per_cycle::8      2077040      0.68%    100.00% # Number of insts commited each cycle
system.cpu1.commit.committed_per_cycle::overflows            0      0.00%    100.00% # Number of insts commited each cycle
system.cpu1.commit.committed_per_cycle::min_value            0                       # Number of insts commited each cycle
system.cpu1.commit.committed_per_cycle::max_value            8                       # Number of insts commited each cycle
system.cpu1.commit.committed_per_cycle::total    307160638                       # Number of insts commited each cycle
system.cpu1.commit.fp_insts                        12                       # Number of committed floating point instructions.
system.cpu1.commit.function_calls             1074956                       # Number of function calls committed.
system.cpu1.commit.int_insts                 65718184                       # Number of committed integer instructions.
system.cpu1.commit.loads                     16752529                       # Number of loads committed
system.cpu1.commit.membars                    2100552                       # Number of memory barriers committed
system.cpu1.commit.op_class_0::No_OpClass      2100552      3.06%      3.06% # Class of committed instruction
system.cpu1.commit.op_class_0::IntAlu        43604606     63.44%     66.50% # Class of committed instruction
system.cpu1.commit.op_class_0::IntMult             44      0.00%     66.50% # Class of committed instruction
system.cpu1.commit.op_class_0::IntDiv              88      0.00%     66.50% # Class of committed instruction
system.cpu1.commit.op_class_0::FloatAdd             0      0.00%     66.50% # Class of committed instruction
system.cpu1.commit.op_class_0::FloatCmp             0      0.00%     66.50% # Class of committed instruction
system.cpu1.commit.op_class_0::FloatCvt             0      0.00%     66.50% # Class of committed instruction
system.cpu1.commit.op_class_0::FloatMult            0      0.00%     66.50% # Class of committed instruction
system.cpu1.commit.op_class_0::FloatMultAcc            0      0.00%     66.50% # Class of committed instruction
system.cpu1.commit.op_class_0::FloatDiv             0      0.00%     66.50% # Class of committed instruction
system.cpu1.commit.op_class_0::FloatMisc            0      0.00%     66.50% # Class of committed instruction
system.cpu1.commit.op_class_0::FloatSqrt            0      0.00%     66.50% # Class of committed instruction
system.cpu1.commit.op_class_0::SimdAdd              0      0.00%     66.50% # Class of committed instruction
system.cpu1.commit.op_class_0::SimdAddAcc            0      0.00%     66.50% # Class of committed instruction
system.cpu1.commit.op_class_0::SimdAlu              0      0.00%     66.50% # Class of committed instruction
system.cpu1.commit.op_class_0::SimdCmp              0      0.00%     66.50% # Class of committed instruction
system.cpu1.commit.op_class_0::SimdCvt              0      0.00%     66.50% # Class of committed instruction
system.cpu1.commit.op_class_0::SimdMisc             0      0.00%     66.50% # Class of committed instruction
system.cpu1.commit.op_class_0::SimdMult             0      0.00%     66.50% # Class of committed instruction
system.cpu1.commit.op_class_0::SimdMultAcc            0      0.00%     66.50% # Class of committed instruction
system.cpu1.commit.op_class_0::SimdShift            0      0.00%     66.50% # Class of committed instruction
system.cpu1.commit.op_class_0::SimdShiftAcc            0      0.00%     66.50% # Class of committed instruction
system.cpu1.commit.op_class_0::SimdDiv              0      0.00%     66.50% # Class of committed instruction
system.cpu1.commit.op_class_0::SimdSqrt             0      0.00%     66.50% # Class of committed instruction
system.cpu1.commit.op_class_0::SimdFloatAdd            0      0.00%     66.50% # Class of committed instruction
system.cpu1.commit.op_class_0::SimdFloatAlu            0      0.00%     66.50% # Class of committed instruction
system.cpu1.commit.op_class_0::SimdFloatCmp            0      0.00%     66.50% # Class of committed instruction
system.cpu1.commit.op_class_0::SimdFloatCvt            0      0.00%     66.50% # Class of committed instruction
system.cpu1.commit.op_class_0::SimdFloatDiv            0      0.00%     66.50% # Class of committed instruction
system.cpu1.commit.op_class_0::SimdFloatMisc            0      0.00%     66.50% # Class of committed instruction
system.cpu1.commit.op_class_0::SimdFloatMult            0      0.00%     66.50% # Class of committed instruction
system.cpu1.commit.op_class_0::SimdFloatMultAcc            0      0.00%     66.50% # Class of committed instruction
system.cpu1.commit.op_class_0::SimdFloatSqrt            0      0.00%     66.50% # Class of committed instruction
system.cpu1.commit.op_class_0::SimdReduceAdd            0      0.00%     66.50% # Class of committed instruction
system.cpu1.commit.op_class_0::SimdReduceAlu            0      0.00%     66.50% # Class of committed instruction
system.cpu1.commit.op_class_0::SimdReduceCmp            0      0.00%     66.50% # Class of committed instruction
system.cpu1.commit.op_class_0::SimdFloatReduceAdd            0      0.00%     66.50% # Class of committed instruction
system.cpu1.commit.op_class_0::SimdFloatReduceCmp            0      0.00%     66.50% # Class of committed instruction
system.cpu1.commit.op_class_0::SimdAes              0      0.00%     66.50% # Class of committed instruction
system.cpu1.commit.op_class_0::SimdAesMix            0      0.00%     66.50% # Class of committed instruction
system.cpu1.commit.op_class_0::SimdSha1Hash            0      0.00%     66.50% # Class of committed instruction
system.cpu1.commit.op_class_0::SimdSha1Hash2            0      0.00%     66.50% # Class of committed instruction
system.cpu1.commit.op_class_0::SimdSha256Hash            0      0.00%     66.50% # Class of committed instruction
system.cpu1.commit.op_class_0::SimdSha256Hash2            0      0.00%     66.50% # Class of committed instruction
system.cpu1.commit.op_class_0::SimdShaSigma2            0      0.00%     66.50% # Class of committed instruction
system.cpu1.commit.op_class_0::SimdShaSigma3            0      0.00%     66.50% # Class of committed instruction
system.cpu1.commit.op_class_0::SimdPredAlu            0      0.00%     66.50% # Class of committed instruction
system.cpu1.commit.op_class_0::MemRead       17802770     25.90%     92.40% # Class of committed instruction
system.cpu1.commit.op_class_0::MemWrite       5225535      7.60%    100.00% # Class of committed instruction
system.cpu1.commit.op_class_0::FloatMemRead            0      0.00%    100.00% # Class of committed instruction
system.cpu1.commit.op_class_0::FloatMemWrite           12      0.00%    100.00% # Class of committed instruction
system.cpu1.commit.op_class_0::IprAccess            0      0.00%    100.00% # Class of committed instruction
system.cpu1.commit.op_class_0::InstPrefetch            0      0.00%    100.00% # Class of committed instruction
system.cpu1.commit.op_class_0::total         68733607                       # Class of committed instruction
system.cpu1.commit.refs                      23028317                       # Number of memory references committed
system.cpu1.commit.swp_count                        0                       # Number of s/w prefetches committed
system.cpu1.commit.vec_insts                        0                       # Number of committed Vector instructions.
system.cpu1.committedInsts                   67683144                       # Number of Instructions Simulated
system.cpu1.committedOps                     68733607                       # Number of Ops (including micro ops) Simulated
system.cpu1.cpi                              4.610469                       # CPI: Cycles Per Instruction
system.cpu1.cpi_total                        4.610469                       # CPI: Total CPI of All Threads
system.cpu1.decode.BlockedCycles            244163285                       # Number of cycles decode is blocked
system.cpu1.decode.BranchMispred               638950                       # Number of times decode detected a branch misprediction
system.cpu1.decode.BranchResolved            11811261                       # Number of times decode resolved a branch
system.cpu1.decode.DecodedInsts              89061701                       # Number of instructions handled by decode
system.cpu1.decode.IdleCycles                17975746                       # Number of cycles decode is idle
system.cpu1.decode.RunCycles                 43968865                       # Number of cycles decode is running
system.cpu1.decode.SquashCycles               1564820                       # Number of cycles decode is squashing
system.cpu1.decode.SquashedInsts              1406531                       # Number of squashed instructions handled by decode
system.cpu1.decode.UnblockCycles              2395582                       # Number of cycles decode is unblocking
system.cpu1.dtb.accesses                            0                       # DTB accesses
system.cpu1.dtb.hits                                0                       # DTB hits
system.cpu1.dtb.misses                              0                       # DTB misses
system.cpu1.dtb.read_accesses                       0                       # DTB read accesses
system.cpu1.dtb.read_hits                           0                       # DTB read hits
system.cpu1.dtb.read_misses                         0                       # DTB read misses
system.cpu1.dtb.write_accesses                      0                       # DTB write accesses
system.cpu1.dtb.write_hits                          0                       # DTB write hits
system.cpu1.dtb.write_misses                        0                       # DTB write misses
system.cpu1.fetch.Branches                   22510516                       # Number of branches that fetch encountered
system.cpu1.fetch.CacheLines                 15603363                       # Number of cache lines fetched
system.cpu1.fetch.Cycles                    289768359                       # Number of cycles fetch has run and was not squashing or blocked
system.cpu1.fetch.IcacheSquashes               340938                       # Number of outstanding Icache misses that were squashed
system.cpu1.fetch.Insts                      96658109                       # Number of instructions fetch has processed
system.cpu1.fetch.MiscStallCycles                   1                       # Number of cycles fetch has spent waiting on interrupts, or bad addresses, or out of MSHRs
system.cpu1.fetch.SquashCycles                4349538                       # Number of cycles fetch has spent squashing
system.cpu1.fetch.branchRate                 0.072137                       # Number of branch fetches per cycle
system.cpu1.fetch.icacheStallCycles          18125169                       # Number of cycles fetch is stalled on an Icache miss
system.cpu1.fetch.predictedBranches          13282743                       # Number of branches that fetch has predicted taken
system.cpu1.fetch.rate                       0.309751                       # Number of inst fetches per cycle
system.cpu1.fetch.rateDist::samples         310068298                       # Number of instructions fetched each cycle (Total)
system.cpu1.fetch.rateDist::mean             0.316729                       # Number of instructions fetched each cycle (Total)
system.cpu1.fetch.rateDist::stdev            0.754983                       # Number of instructions fetched each cycle (Total)
system.cpu1.fetch.rateDist::underflows              0      0.00%      0.00% # Number of instructions fetched each cycle (Total)
system.cpu1.fetch.rateDist::0               247749884     79.90%     79.90% # Number of instructions fetched each cycle (Total)
system.cpu1.fetch.rateDist::1                39607365     12.77%     92.68% # Number of instructions fetched each cycle (Total)
system.cpu1.fetch.rateDist::2                13187987      4.25%     96.93% # Number of instructions fetched each cycle (Total)
system.cpu1.fetch.rateDist::3                 7377681      2.38%     99.31% # Number of instructions fetched each cycle (Total)
system.cpu1.fetch.rateDist::4                 1219105      0.39%     99.70% # Number of instructions fetched each cycle (Total)
system.cpu1.fetch.rateDist::5                  344794      0.11%     99.81% # Number of instructions fetched each cycle (Total)
system.cpu1.fetch.rateDist::6                  580534      0.19%    100.00% # Number of instructions fetched each cycle (Total)
system.cpu1.fetch.rateDist::7                       9      0.00%    100.00% # Number of instructions fetched each cycle (Total)
system.cpu1.fetch.rateDist::8                     939      0.00%    100.00% # Number of instructions fetched each cycle (Total)
system.cpu1.fetch.rateDist::overflows               0      0.00%    100.00% # Number of instructions fetched each cycle (Total)
system.cpu1.fetch.rateDist::min_value               0                       # Number of instructions fetched each cycle (Total)
system.cpu1.fetch.rateDist::max_value               8                       # Number of instructions fetched each cycle (Total)
system.cpu1.fetch.rateDist::total           310068298                       # Number of instructions fetched each cycle (Total)
system.cpu1.fp_regfile_reads                       12                       # number of floating regfile reads
system.cpu1.idleCycles                        1982715                       # Total number of cycles that the CPU has spent unscheduled due to idling
system.cpu1.iew.branchMispredicts             1628967                       # Number of branch mispredicts detected at execute
system.cpu1.iew.exec_branches                18168383                       # Number of branches executed
system.cpu1.iew.exec_nop                            0                       # number of nop insts executed
system.cpu1.iew.exec_rate                    0.246974                       # Inst execution rate
system.cpu1.iew.exec_refs                    26012518                       # number of memory reference insts executed
system.cpu1.iew.exec_stores                   6637383                       # Number of stores executed
system.cpu1.iew.exec_swp                            0                       # number of swp insts executed
system.cpu1.iew.iewBlockCycles              202072960                       # Number of cycles IEW is blocking
system.cpu1.iew.iewDispLoadInsts             20888487                       # Number of dispatched load instructions
system.cpu1.iew.iewDispNonSpecInsts           1201429                       # Number of dispatched non-speculative instructions
system.cpu1.iew.iewDispSquashedInsts          1697880                       # Number of squashed instructions skipped by dispatch
system.cpu1.iew.iewDispStoreInsts             7297274                       # Number of dispatched store instructions
system.cpu1.iew.iewDispatchedInsts           83250399                       # Number of instructions dispatched to IQ
system.cpu1.iew.iewExecLoadInsts             19375135                       # Number of load instructions executed
system.cpu1.iew.iewExecSquashedInsts          1341103                       # Number of squashed instructions skipped in execute
system.cpu1.iew.iewExecutedInsts             77068562                       # Number of executed instructions
system.cpu1.iew.iewIQFullEvents                759193                       # Number of times the IQ has become full, causing a stall
system.cpu1.iew.iewIdleCycles                       0                       # Number of cycles IEW is idle
system.cpu1.iew.iewLSQFullEvents              3854541                       # Number of times the LSQ has become full, causing a stall
system.cpu1.iew.iewSquashCycles               1564820                       # Number of cycles IEW is squashing
system.cpu1.iew.iewUnblockCycles              5829562                       # Number of cycles IEW is unblocking
system.cpu1.iew.lsq.thread0.blockedLoads            0                       # Number of blocked loads due to partial load-store forwarding
system.cpu1.iew.lsq.thread0.cacheBlocked        97480                       # Number of times an access to memory failed due to the cache being blocked
system.cpu1.iew.lsq.thread0.forwLoads          714162                       # Number of loads that had data forwarded from stores
system.cpu1.iew.lsq.thread0.ignoredResponses        31495                       # Number of memory responses ignored because the instruction is squashed
system.cpu1.iew.lsq.thread0.invAddrLoads            0                       # Number of loads ignored due to an invalid address
system.cpu1.iew.lsq.thread0.invAddrSwpfs            0                       # Number of software prefetches ignored due to an invalid address
system.cpu1.iew.lsq.thread0.memOrderViolation         2142                       # Number of memory ordering violations
system.cpu1.iew.lsq.thread0.rescheduledLoads        11117                       # Number of loads that were rescheduled
system.cpu1.iew.lsq.thread0.squashedLoads      4135958                       # Number of loads squashed
system.cpu1.iew.lsq.thread0.squashedStores      1021486                       # Number of stores squashed
system.cpu1.iew.memOrderViolationEvents          2142                       # Number of memory order violations
system.cpu1.iew.predictedNotTakenIncorrect       579121                       # Number of branches that were predicted not taken incorrectly
system.cpu1.iew.predictedTakenIncorrect       1049846                       # Number of branches that were predicted taken incorrectly
system.cpu1.iew.wb_consumers                 43907840                       # num instructions consuming a value
system.cpu1.iew.wb_count                     75874147                       # cumulative count of insts written-back
system.cpu1.iew.wb_fanout                    0.823690                       # average fanout of values written-back
system.cpu1.iew.wb_producers                 36166465                       # num instructions producing a value
system.cpu1.iew.wb_rate                      0.243147                       # insts written-back per cycle
system.cpu1.iew.wb_sent                      75925959                       # cumulative count of insts sent to commit
system.cpu1.int_regfile_reads                98058584                       # number of integer regfile reads
system.cpu1.int_regfile_writes               50691408                       # number of integer regfile writes
system.cpu1.ipc                              0.216898                       # IPC: Instructions Per Cycle
system.cpu1.ipc_total                        0.216898                       # IPC: Total IPC of All Threads
system.cpu1.iq.FU_type_0::No_OpClass          2100776      2.68%      2.68% # Type of FU issued
system.cpu1.iq.FU_type_0::IntAlu             49887697     63.62%     66.30% # Type of FU issued
system.cpu1.iq.FU_type_0::IntMult                  51      0.00%     66.30% # Type of FU issued
system.cpu1.iq.FU_type_0::IntDiv                   90      0.00%     66.30% # Type of FU issued
system.cpu1.iq.FU_type_0::FloatAdd                  0      0.00%     66.30% # Type of FU issued
system.cpu1.iq.FU_type_0::FloatCmp                  0      0.00%     66.30% # Type of FU issued
system.cpu1.iq.FU_type_0::FloatCvt                  0      0.00%     66.30% # Type of FU issued
system.cpu1.iq.FU_type_0::FloatMult                 0      0.00%     66.30% # Type of FU issued
system.cpu1.iq.FU_type_0::FloatMultAcc              0      0.00%     66.30% # Type of FU issued
system.cpu1.iq.FU_type_0::FloatDiv                  0      0.00%     66.30% # Type of FU issued
system.cpu1.iq.FU_type_0::FloatMisc                 0      0.00%     66.30% # Type of FU issued
system.cpu1.iq.FU_type_0::FloatSqrt                 0      0.00%     66.30% # Type of FU issued
system.cpu1.iq.FU_type_0::SimdAdd                   0      0.00%     66.30% # Type of FU issued
system.cpu1.iq.FU_type_0::SimdAddAcc                0      0.00%     66.30% # Type of FU issued
system.cpu1.iq.FU_type_0::SimdAlu                   0      0.00%     66.30% # Type of FU issued
system.cpu1.iq.FU_type_0::SimdCmp                   0      0.00%     66.30% # Type of FU issued
system.cpu1.iq.FU_type_0::SimdCvt                   0      0.00%     66.30% # Type of FU issued
system.cpu1.iq.FU_type_0::SimdMisc                  0      0.00%     66.30% # Type of FU issued
system.cpu1.iq.FU_type_0::SimdMult                  0      0.00%     66.30% # Type of FU issued
system.cpu1.iq.FU_type_0::SimdMultAcc               0      0.00%     66.30% # Type of FU issued
system.cpu1.iq.FU_type_0::SimdShift                 0      0.00%     66.30% # Type of FU issued
system.cpu1.iq.FU_type_0::SimdShiftAcc              0      0.00%     66.30% # Type of FU issued
system.cpu1.iq.FU_type_0::SimdDiv                   0      0.00%     66.30% # Type of FU issued
system.cpu1.iq.FU_type_0::SimdSqrt                  0      0.00%     66.30% # Type of FU issued
system.cpu1.iq.FU_type_0::SimdFloatAdd              0      0.00%     66.30% # Type of FU issued
system.cpu1.iq.FU_type_0::SimdFloatAlu              0      0.00%     66.30% # Type of FU issued
system.cpu1.iq.FU_type_0::SimdFloatCmp              0      0.00%     66.30% # Type of FU issued
system.cpu1.iq.FU_type_0::SimdFloatCvt              0      0.00%     66.30% # Type of FU issued
system.cpu1.iq.FU_type_0::SimdFloatDiv              0      0.00%     66.30% # Type of FU issued
system.cpu1.iq.FU_type_0::SimdFloatMisc             0      0.00%     66.30% # Type of FU issued
system.cpu1.iq.FU_type_0::SimdFloatMult             0      0.00%     66.30% # Type of FU issued
system.cpu1.iq.FU_type_0::SimdFloatMultAcc            0      0.00%     66.30% # Type of FU issued
system.cpu1.iq.FU_type_0::SimdFloatSqrt             0      0.00%     66.30% # Type of FU issued
system.cpu1.iq.FU_type_0::SimdReduceAdd             0      0.00%     66.30% # Type of FU issued
system.cpu1.iq.FU_type_0::SimdReduceAlu             0      0.00%     66.30% # Type of FU issued
system.cpu1.iq.FU_type_0::SimdReduceCmp             0      0.00%     66.30% # Type of FU issued
system.cpu1.iq.FU_type_0::SimdFloatReduceAdd            0      0.00%     66.30% # Type of FU issued
system.cpu1.iq.FU_type_0::SimdFloatReduceCmp            0      0.00%     66.30% # Type of FU issued
system.cpu1.iq.FU_type_0::SimdAes                   0      0.00%     66.30% # Type of FU issued
system.cpu1.iq.FU_type_0::SimdAesMix                0      0.00%     66.30% # Type of FU issued
system.cpu1.iq.FU_type_0::SimdSha1Hash              0      0.00%     66.30% # Type of FU issued
system.cpu1.iq.FU_type_0::SimdSha1Hash2             0      0.00%     66.30% # Type of FU issued
system.cpu1.iq.FU_type_0::SimdSha256Hash            0      0.00%     66.30% # Type of FU issued
system.cpu1.iq.FU_type_0::SimdSha256Hash2            0      0.00%     66.30% # Type of FU issued
system.cpu1.iq.FU_type_0::SimdShaSigma2             0      0.00%     66.30% # Type of FU issued
system.cpu1.iq.FU_type_0::SimdShaSigma3             0      0.00%     66.30% # Type of FU issued
system.cpu1.iq.FU_type_0::SimdPredAlu               0      0.00%     66.30% # Type of FU issued
system.cpu1.iq.FU_type_0::MemRead            20762836     26.48%     92.78% # Type of FU issued
system.cpu1.iq.FU_type_0::MemWrite            5658203      7.22%    100.00% # Type of FU issued
system.cpu1.iq.FU_type_0::FloatMemRead              0      0.00%    100.00% # Type of FU issued
system.cpu1.iq.FU_type_0::FloatMemWrite            12      0.00%    100.00% # Type of FU issued
system.cpu1.iq.FU_type_0::IprAccess                 0      0.00%    100.00% # Type of FU issued
system.cpu1.iq.FU_type_0::InstPrefetch              0      0.00%    100.00% # Type of FU issued
system.cpu1.iq.FU_type_0::total              78409665                       # Type of FU issued
system.cpu1.iq.fp_alu_accesses                     16                       # Number of floating point alu accesses
system.cpu1.iq.fp_inst_queue_reads                 28                       # Number of floating instruction queue reads
system.cpu1.iq.fp_inst_queue_wakeup_accesses           12                       # Number of floating instruction queue wakeup accesses
system.cpu1.iq.fp_inst_queue_writes                12                       # Number of floating instruction queue writes
system.cpu1.iq.fu_busy_cnt                    1569812                       # FU busy when requested
system.cpu1.iq.fu_busy_rate                  0.020021                       # FU busy rate (busy events/executed inst)
system.cpu1.iq.fu_full::No_OpClass                  0      0.00%      0.00% # attempts to use FU when none available
system.cpu1.iq.fu_full::IntAlu                 328583     20.93%     20.93% # attempts to use FU when none available
system.cpu1.iq.fu_full::IntMult                     0      0.00%     20.93% # attempts to use FU when none available
system.cpu1.iq.fu_full::IntDiv                      0      0.00%     20.93% # attempts to use FU when none available
system.cpu1.iq.fu_full::FloatAdd                    0      0.00%     20.93% # attempts to use FU when none available
system.cpu1.iq.fu_full::FloatCmp                    0      0.00%     20.93% # attempts to use FU when none available
system.cpu1.iq.fu_full::FloatCvt                    0      0.00%     20.93% # attempts to use FU when none available
system.cpu1.iq.fu_full::FloatMult                   0      0.00%     20.93% # attempts to use FU when none available
system.cpu1.iq.fu_full::FloatMultAcc                0      0.00%     20.93% # attempts to use FU when none available
system.cpu1.iq.fu_full::FloatDiv                    0      0.00%     20.93% # attempts to use FU when none available
system.cpu1.iq.fu_full::FloatMisc                   0      0.00%     20.93% # attempts to use FU when none available
system.cpu1.iq.fu_full::FloatSqrt                   0      0.00%     20.93% # attempts to use FU when none available
system.cpu1.iq.fu_full::SimdAdd                     0      0.00%     20.93% # attempts to use FU when none available
system.cpu1.iq.fu_full::SimdAddAcc                  0      0.00%     20.93% # attempts to use FU when none available
system.cpu1.iq.fu_full::SimdAlu                     0      0.00%     20.93% # attempts to use FU when none available
system.cpu1.iq.fu_full::SimdCmp                     0      0.00%     20.93% # attempts to use FU when none available
system.cpu1.iq.fu_full::SimdCvt                     0      0.00%     20.93% # attempts to use FU when none available
system.cpu1.iq.fu_full::SimdMisc                    0      0.00%     20.93% # attempts to use FU when none available
system.cpu1.iq.fu_full::SimdMult                    0      0.00%     20.93% # attempts to use FU when none available
system.cpu1.iq.fu_full::SimdMultAcc                 0      0.00%     20.93% # attempts to use FU when none available
system.cpu1.iq.fu_full::SimdShift                   0      0.00%     20.93% # attempts to use FU when none available
system.cpu1.iq.fu_full::SimdShiftAcc                0      0.00%     20.93% # attempts to use FU when none available
system.cpu1.iq.fu_full::SimdDiv                     0      0.00%     20.93% # attempts to use FU when none available
system.cpu1.iq.fu_full::SimdSqrt                    0      0.00%     20.93% # attempts to use FU when none available
system.cpu1.iq.fu_full::SimdFloatAdd                0      0.00%     20.93% # attempts to use FU when none available
system.cpu1.iq.fu_full::SimdFloatAlu                0      0.00%     20.93% # attempts to use FU when none available
system.cpu1.iq.fu_full::SimdFloatCmp                0      0.00%     20.93% # attempts to use FU when none available
system.cpu1.iq.fu_full::SimdFloatCvt                0      0.00%     20.93% # attempts to use FU when none available
system.cpu1.iq.fu_full::SimdFloatDiv                0      0.00%     20.93% # attempts to use FU when none available
system.cpu1.iq.fu_full::SimdFloatMisc               0      0.00%     20.93% # attempts to use FU when none available
system.cpu1.iq.fu_full::SimdFloatMult               0      0.00%     20.93% # attempts to use FU when none available
system.cpu1.iq.fu_full::SimdFloatMultAcc            0      0.00%     20.93% # attempts to use FU when none available
system.cpu1.iq.fu_full::SimdFloatSqrt               0      0.00%     20.93% # attempts to use FU when none available
system.cpu1.iq.fu_full::SimdReduceAdd               0      0.00%     20.93% # attempts to use FU when none available
system.cpu1.iq.fu_full::SimdReduceAlu               0      0.00%     20.93% # attempts to use FU when none available
system.cpu1.iq.fu_full::SimdReduceCmp               0      0.00%     20.93% # attempts to use FU when none available
system.cpu1.iq.fu_full::SimdFloatReduceAdd            0      0.00%     20.93% # attempts to use FU when none available
system.cpu1.iq.fu_full::SimdFloatReduceCmp            0      0.00%     20.93% # attempts to use FU when none available
system.cpu1.iq.fu_full::SimdAes                     0      0.00%     20.93% # attempts to use FU when none available
system.cpu1.iq.fu_full::SimdAesMix                  0      0.00%     20.93% # attempts to use FU when none available
system.cpu1.iq.fu_full::SimdSha1Hash                0      0.00%     20.93% # attempts to use FU when none available
system.cpu1.iq.fu_full::SimdSha1Hash2               0      0.00%     20.93% # attempts to use FU when none available
system.cpu1.iq.fu_full::SimdSha256Hash              0      0.00%     20.93% # attempts to use FU when none available
system.cpu1.iq.fu_full::SimdSha256Hash2             0      0.00%     20.93% # attempts to use FU when none available
system.cpu1.iq.fu_full::SimdShaSigma2               0      0.00%     20.93% # attempts to use FU when none available
system.cpu1.iq.fu_full::SimdShaSigma3               0      0.00%     20.93% # attempts to use FU when none available
system.cpu1.iq.fu_full::SimdPredAlu                 0      0.00%     20.93% # attempts to use FU when none available
system.cpu1.iq.fu_full::MemRead                981825     62.54%     83.48% # attempts to use FU when none available
system.cpu1.iq.fu_full::MemWrite               259400     16.52%    100.00% # attempts to use FU when none available
[...]
system.cpu1.dcache.WriteReq_mshr_miss_latency::.cpu1.data  12034556975                       # number of WriteReq MSHR miss cycles
system.cpu1.dcache.WriteReq_mshr_miss_latency::total  12034556975                       # number of WriteReq MSHR miss cycles
system.cpu1.dcache.WriteReq_mshr_miss_rate::.cpu1.data     0.047049                       # mshr miss rate for WriteReq accesses
system.cpu1.dcache.WriteReq_mshr_miss_rate::total     0.047049                       # mshr miss rate for WriteReq accesses
system.cpu1.dcache.WriteReq_avg_mshr_miss_latency::.cpu1.data 108283.833533                       # average WriteReq mshr miss latency
system.cpu1.dcache.WriteReq_avg_mshr_miss_latency::total 108283.833533                       # average WriteReq mshr miss latency
system.cpu1.dcache.LoadLockedReq_hits::.cpu1.data        16962                       # number of LoadLockedReq hits
system.cpu1.dcache.LoadLockedReq_hits::total        16962                       # number of LoadLockedReq hits
system.cpu1.dcache.LoadLockedReq_misses::.cpu1.data          688                       # number of LoadLockedReq misses
system.cpu1.dcache.LoadLockedReq_misses::total          688                       # number of LoadLockedReq misses
system.cpu1.dcache.LoadLockedReq_miss_latency::.cpu1.data     25494500                       # number of LoadLockedReq miss cycles
system.cpu1.dcache.LoadLockedReq_miss_latency::total     25494500                       # number of LoadLockedReq miss cycles
system.cpu1.dcache.LoadLockedReq_accesses::.cpu1.data        17650                       # number of LoadLockedReq accesses(hits+misses)
system.cpu1.dcache.LoadLockedReq_accesses::total        17650                       # number of LoadLockedReq accesses(hits+misses)
system.cpu1.dcache.LoadLockedReq_miss_rate::.cpu1.data     0.038980                       # miss rate for LoadLockedReq accesses
system.cpu1.dcache.LoadLockedReq_miss_rate::total     0.038980                       # miss rate for LoadLockedReq accesses
system.cpu1.dcache.LoadLockedReq_avg_miss_latency::.cpu1.data 37055.959302                       # average LoadLockedReq miss latency
system.cpu1.dcache.LoadLockedReq_avg_miss_latency::total 37055.959302                       # average LoadLockedReq miss latency
system.cpu1.dcache.LoadLockedReq_mshr_hits::.cpu1.data          121                       # number of LoadLockedReq MSHR hits
system.cpu1.dcache.LoadLockedReq_mshr_hits::total          121                       # number of LoadLockedReq MSHR hits
system.cpu1.dcache.LoadLockedReq_mshr_misses::.cpu1.data          567                       # number of LoadLockedReq MSHR misses
system.cpu1.dcache.LoadLockedReq_mshr_misses::total          567                       # number of LoadLockedReq MSHR misses
system.cpu1.dcache.LoadLockedReq_mshr_miss_latency::.cpu1.data     19370000                       # number of LoadLockedReq MSHR miss cycles
system.cpu1.dcache.LoadLockedReq_mshr_miss_latency::total     19370000                       # number of LoadLockedReq MSHR miss cycles
system.cpu1.dcache.LoadLockedReq_mshr_miss_rate::.cpu1.data     0.032125                       # mshr miss rate for LoadLockedReq accesses
system.cpu1.dcache.LoadLockedReq_mshr_miss_rate::total     0.032125                       # mshr miss rate for LoadLockedReq accesses
system.cpu1.dcache.LoadLockedReq_avg_mshr_miss_latency::.cpu1.data 34162.257496                       # average LoadLockedReq mshr miss latency
system.cpu1.dcache.LoadLockedReq_avg_mshr_miss_latency::total 34162.257496                       # average LoadLockedReq mshr miss latency
system.cpu1.dcache.StoreCondReq_hits::.cpu1.data        16100                       # number of StoreCondReq hits
system.cpu1.dcache.StoreCondReq_hits::total        16100                       # number of StoreCondReq hits
system.cpu1.dcache.StoreCondReq_misses::.cpu1.data          749                       # number of StoreCondReq misses
system.cpu1.dcache.StoreCondReq_misses::total          749                       # number of StoreCondReq misses
system.cpu1.dcache.StoreCondReq_miss_latency::.cpu1.data      5273500                       # number of StoreCondReq miss cycles
system.cpu1.dcache.StoreCondReq_miss_latency::total      5273500                       # number of StoreCondReq miss cycles
system.cpu1.dcache.StoreCondReq_accesses::.cpu1.data        16849                       # number of StoreCondReq accesses(hits+misses)
system.cpu1.dcache.StoreCondReq_accesses::total        16849                       # number of StoreCondReq accesses(hits+misses)
system.cpu1.dcache.StoreCondReq_miss_rate::.cpu1.data     0.044454                       # miss rate for StoreCondReq accesses
system.cpu1.dcache.StoreCondReq_miss_rate::total     0.044454                       # miss rate for StoreCondReq accesses
system.cpu1.dcache.StoreCondReq_avg_miss_latency::.cpu1.data  7040.720961                       # average StoreCondReq miss latency
system.cpu1.dcache.StoreCondReq_avg_miss_latency::total  7040.720961                       # average StoreCondReq miss latency
system.cpu1.dcache.StoreCondReq_mshr_misses::.cpu1.data          734                       # number of StoreCondReq MSHR misses
system.cpu1.dcache.StoreCondReq_mshr_misses::total          734                       # number of StoreCondReq MSHR misses
system.cpu1.dcache.StoreCondReq_mshr_miss_latency::.cpu1.data      4595500                       # number of StoreCondReq MSHR miss cycles
system.cpu1.dcache.StoreCondReq_mshr_miss_latency::total      4595500                       # number of StoreCondReq MSHR miss cycles
system.cpu1.dcache.StoreCondReq_mshr_miss_rate::.cpu1.data     0.043563                       # mshr miss rate for StoreCondReq accesses
system.cpu1.dcache.StoreCondReq_mshr_miss_rate::total     0.043563                       # mshr miss rate for StoreCondReq accesses
system.cpu1.dcache.StoreCondReq_avg_mshr_miss_latency::.cpu1.data  6260.899183                       # average StoreCondReq mshr miss latency
system.cpu1.dcache.StoreCondReq_avg_mshr_miss_latency::total  6260.899183                       # average StoreCondReq mshr miss latency
system.cpu1.dcache.StoreCondFailReq_miss_latency::.cpu1.data       859000                       # number of StoreCondFailReq miss cycles
system.cpu1.dcache.StoreCondFailReq_miss_latency::total       859000                       # number of StoreCondFailReq miss cycles
system.cpu1.dcache.StoreCondFailReq_avg_miss_latency::.cpu1.data          inf                       # average StoreCondFailReq miss latency
system.cpu1.dcache.StoreCondFailReq_avg_miss_latency::total          inf                       # average StoreCondFailReq miss latency
system.cpu1.dcache.StoreCondFailReq_mshr_miss_latency::.cpu1.data       803000                       # number of StoreCondFailReq MSHR miss cycles
system.cpu1.dcache.StoreCondFailReq_mshr_miss_latency::total       803000                       # number of StoreCondFailReq MSHR miss cycles
system.cpu1.dcache.StoreCondFailReq_avg_mshr_miss_latency::.cpu1.data          inf                       # average StoreCondFailReq mshr miss latency
system.cpu1.dcache.StoreCondFailReq_avg_mshr_miss_latency::total          inf                       # average StoreCondFailReq mshr miss latency
system.cpu1.dcache.SwapReq_hits::.cpu1.data          665                       # number of SwapReq hits
system.cpu1.dcache.SwapReq_hits::total            665                       # number of SwapReq hits
system.cpu1.dcache.SwapReq_misses::.cpu1.data         1256                       # number of SwapReq misses
system.cpu1.dcache.SwapReq_misses::total         1256                       # number of SwapReq misses
system.cpu1.dcache.SwapReq_miss_latency::.cpu1.data     13416000                       # number of SwapReq miss cycles
system.cpu1.dcache.SwapReq_miss_latency::total     13416000                       # number of SwapReq miss cycles
system.cpu1.dcache.SwapReq_accesses::.cpu1.data         1921                       # number of SwapReq accesses(hits+misses)
system.cpu1.dcache.SwapReq_accesses::total         1921                       # number of SwapReq accesses(hits+misses)
system.cpu1.dcache.SwapReq_miss_rate::.cpu1.data     0.653826                       # miss rate for SwapReq accesses
system.cpu1.dcache.SwapReq_miss_rate::total     0.653826                       # miss rate for SwapReq accesses
system.cpu1.dcache.SwapReq_avg_miss_latency::.cpu1.data 10681.528662                       # average SwapReq miss latency
system.cpu1.dcache.SwapReq_avg_miss_latency::total 10681.528662                       # average SwapReq miss latency
system.cpu1.dcache.SwapReq_mshr_misses::.cpu1.data         1256                       # number of SwapReq MSHR misses
system.cpu1.dcache.SwapReq_mshr_misses::total         1256                       # number of SwapReq MSHR misses
system.cpu1.dcache.SwapReq_mshr_miss_latency::.cpu1.data     12160000                       # number of SwapReq MSHR miss cycles
system.cpu1.dcache.SwapReq_mshr_miss_latency::total     12160000                       # number of SwapReq MSHR miss cycles
system.cpu1.dcache.SwapReq_mshr_miss_rate::.cpu1.data     0.653826                       # mshr miss rate for SwapReq accesses
system.cpu1.dcache.SwapReq_mshr_miss_rate::total     0.653826                       # mshr miss rate for SwapReq accesses
system.cpu1.dcache.SwapReq_avg_mshr_miss_latency::.cpu1.data  9681.528662                       # average SwapReq mshr miss latency
system.cpu1.dcache.SwapReq_avg_mshr_miss_latency::total  9681.528662                       # average SwapReq mshr miss latency
system.cpu1.dcache.tags.pwrStateResidencyTicks::UNDEFINED  45526101000                       # Cumulative time (in ticks) in various power states
system.cpu1.dcache.tags.tagsinuse           31.428041                       # Cycle average of tags in use
system.cpu1.dcache.tags.total_refs            7904846                       # Total number of references to valid blocks.
system.cpu1.dcache.tags.sampled_refs           497389                       # Sample count of references to valid blocks.
system.cpu1.dcache.tags.avg_refs            15.892684                       # Average number of references to valid blocks.
system.cpu1.dcache.tags.warmup_cycle                0                       # Cycle when the warmup percentage was hit.
system.cpu1.dcache.tags.occ_blocks::.cpu1.data    31.428041                       # Average occupied blocks per requestor
system.cpu1.dcache.tags.occ_percent::.cpu1.data     0.982126                       # Average percentage of cache occupancy
system.cpu1.dcache.tags.occ_percent::total     0.982126                       # Average percentage of cache occupancy
system.cpu1.dcache.tags.occ_task_id_blocks::1024           27                       # Occupied blocks per task id
system.cpu1.dcache.tags.age_task_id_blocks_1024::1           27                       # Occupied blocks per task id
system.cpu1.dcache.tags.occ_task_id_percent::1024     0.843750                       # Percentage of cache occupancy per task id
system.cpu1.dcache.tags.tag_accesses         25931228                       # Number of tag accesses
system.cpu1.dcache.tags.data_accesses        25931228                       # Number of data accesses
system.cpu_clk_domain.clock                       500                       # Clock period in ticks
system.tol2bus.pwrStateResidencyTicks::UNDEFINED  45526101000                       # Cumulative time (in ticks) in various power states
system.tol2bus.trans_dist::ReadResp           1689154                       # Transaction distribution
system.tol2bus.trans_dist::ReadRespWithInvalidate            9                       # Transaction distribution
system.tol2bus.trans_dist::WritebackDirty      1868457                       # Transaction distribution
system.tol2bus.trans_dist::WritebackClean      1217638                       # Transaction distribution
system.tol2bus.trans_dist::CleanEvict         3146464                       # Transaction distribution
system.tol2bus.trans_dist::UpgradeReq            4611                       # Transaction distribution
system.tol2bus.trans_dist::SCUpgradeReq          3545                       # Transaction distribution
system.tol2bus.trans_dist::UpgradeResp           8156                       # Transaction distribution
system.tol2bus.trans_dist::SCUpgradeFailReq          193                       # Transaction distribution
system.tol2bus.trans_dist::UpgradeFailResp          193                       # Transaction distribution
system.tol2bus.trans_dist::ReadExReq           482483                       # Transaction distribution
system.tol2bus.trans_dist::ReadExResp          482484                       # Transaction distribution
system.tol2bus.trans_dist::ReadCleanReq        119625                       # Transaction distribution
system.tol2bus.trans_dist::ReadSharedReq      1569538                       # Transaction distribution
system.tol2bus.trans_dist::InvalidateReq          117                       # Transaction distribution
system.tol2bus.trans_dist::InvalidateResp          117                       # Transaction distribution
system.tol2bus.pkt_count_system.cpu0.icache.mem_side::system.l2.cpu_side       216792                       # Packet count per connected master and slave (bytes)
system.tol2bus.pkt_count_system.cpu0.dcache.mem_side::system.l2.cpu_side      1653867                       # Packet count per connected master and slave (bytes)
system.tol2bus.pkt_count_system.cpu1.icache.mem_side::system.l2.cpu_side        47868                       # Packet count per connected master and slave (bytes)
system.tol2bus.pkt_count_system.cpu1.dcache.mem_side::system.l2.cpu_side      1486697                       # Packet count per connected master and slave (bytes)
system.tol2bus.pkt_count_system.cpu2.icache.mem_side::system.l2.cpu_side        47274                       # Packet count per connected master and slave (bytes)
system.tol2bus.pkt_count_system.cpu2.dcache.mem_side::system.l2.cpu_side      1500378                       # Packet count per connected master and slave (bytes)
system.tol2bus.pkt_count_system.cpu3.icache.mem_side::system.l2.cpu_side        46941                       # Packet count per connected master and slave (bytes)
system.tol2bus.pkt_count_system.cpu3.dcache.mem_side::system.l2.cpu_side      1496484                       # Packet count per connected master and slave (bytes)
system.tol2bus.pkt_count::total               6496301                       # Packet count per connected master and slave (bytes)
system.tol2bus.pkt_size_system.cpu0.icache.mem_side::system.l2.cpu_side      9249792                       # Cumulative packet size per connected master and slave (bytes)
system.tol2bus.pkt_size_system.cpu0.dcache.mem_side::system.l2.cpu_side     70291520                       # Cumulative packet size per connected master and slave (bytes)
system.tol2bus.pkt_size_system.cpu1.icache.mem_side::system.l2.cpu_side      2042368                       # Cumulative packet size per connected master and slave (bytes)
system.tol2bus.pkt_size_system.cpu1.dcache.mem_side::system.l2.cpu_side     63169600                       # Cumulative packet size per connected master and slave (bytes)
system.tol2bus.pkt_size_system.cpu2.icache.mem_side::system.l2.cpu_side      2017024                       # Cumulative packet size per connected master and slave (bytes)
system.tol2bus.pkt_size_system.cpu2.dcache.mem_side::system.l2.cpu_side     63746176                       # Cumulative packet size per connected master and slave (bytes)
system.tol2bus.pkt_size_system.cpu3.icache.mem_side::system.l2.cpu_side      2002816                       # Cumulative packet size per connected master and slave (bytes)
system.tol2bus.pkt_size_system.cpu3.dcache.mem_side::system.l2.cpu_side     63576064                       # Cumulative packet size per connected master and slave (bytes)
system.tol2bus.pkt_size::total              276095360                       # Cumulative packet size per connected master and slave (bytes)
system.tol2bus.snoops                         4096483                       # Total snoops (count)
system.tol2bus.snoopTraffic                  60412480                       # Total snoop traffic (bytes)
system.tol2bus.snoop_fanout::samples          6256258                       # Request fanout histogram
system.tol2bus.snoop_fanout::mean            0.361907                       # Request fanout histogram
system.tol2bus.snoop_fanout::stdev           0.553611                       # Request fanout histogram
system.tol2bus.snoop_fanout::underflows             0      0.00%      0.00% # Request fanout histogram
system.tol2bus.snoop_fanout::0                4144025     66.24%     66.24% # Request fanout histogram
system.tol2bus.snoop_fanout::1                2028732     32.43%     98.67% # Request fanout histogram
system.tol2bus.snoop_fanout::2                  30987      0.50%     99.16% # Request fanout histogram
system.tol2bus.snoop_fanout::3                  36576      0.58%     99.75% # Request fanout histogram
system.tol2bus.snoop_fanout::4                  15938      0.25%    100.00% # Request fanout histogram
system.tol2bus.snoop_fanout::5                      0      0.00%    100.00% # Request fanout histogram
system.tol2bus.snoop_fanout::6                      0      0.00%    100.00% # Request fanout histogram
system.tol2bus.snoop_fanout::7                      0      0.00%    100.00% # Request fanout histogram
system.tol2bus.snoop_fanout::8                      0      0.00%    100.00% # Request fanout histogram
system.tol2bus.snoop_fanout::overflows              0      0.00%    100.00% # Request fanout histogram
system.tol2bus.snoop_fanout::min_value              0                       # Request fanout histogram
system.tol2bus.snoop_fanout::max_value              4                       # Request fanout histogram
system.tol2bus.snoop_fanout::total            6256258                       # Request fanout histogram
system.tol2bus.reqLayer0.occupancy         4324724901                       # Layer occupancy (ticks)
system.tol2bus.reqLayer0.utilization              9.5                       # Layer utilization (%)
system.tol2bus.respLayer5.occupancy         754454931                       # Layer occupancy (ticks)
system.tol2bus.respLayer5.utilization             1.7                       # Layer utilization (%)
system.tol2bus.respLayer4.occupancy          25905773                       # Layer occupancy (ticks)
system.tol2bus.respLayer4.utilization             0.1                       # Layer utilization (%)
system.tol2bus.respLayer7.occupancy         752640555                       # Layer occupancy (ticks)
system.tol2bus.respLayer7.utilization             1.7                       # Layer utilization (%)
system.tol2bus.respLayer6.occupancy          25674119                       # Layer occupancy (ticks)
system.tol2bus.respLayer6.utilization             0.1                       # Layer utilization (%)
system.tol2bus.respLayer1.occupancy         829747431                       # Layer occupancy (ticks)
system.tol2bus.respLayer1.utilization             1.8                       # Layer utilization (%)
system.tol2bus.respLayer0.occupancy         109112405                       # Layer occupancy (ticks)
system.tol2bus.respLayer0.utilization             0.2                       # Layer utilization (%)
system.tol2bus.respLayer3.occupancy         747509505                       # Layer occupancy (ticks)
system.tol2bus.respLayer3.utilization             1.6                       # Layer utilization (%)
system.tol2bus.respLayer2.occupancy          26127574                       # Layer occupancy (ticks)
system.tol2bus.respLayer2.utilization             0.1                       # Layer utilization (%)

---------- End Simulation Statistics   ----------
