
---------- Begin Simulation Statistics ----------
final_tick                               605093198000                       # Number of ticks from beginning of simulation (restored from checkpoints and never reset)
host_inst_rate                                  76531                       # Simulator instruction rate (inst/s)
host_mem_usage                                 702660                       # Number of bytes of host memory used
host_op_rate                                    76785                       # Simulator op (including micro ops) rate (op/s)
host_seconds                                  8004.00                       # Real time elapsed on the host
host_tick_rate                               75598829                       # Simulator tick rate (ticks/s)
sim_freq                                 1000000000000                       # Frequency of simulated ticks
sim_insts                                   612551037                       # Number of instructions simulated
sim_ops                                     614588631                       # Number of ops (including micro ops) simulated
sim_seconds                                  0.605093                       # Number of seconds simulated
sim_ticks                                605093198000                       # Number of ticks simulated
system.cpu0.branchPred.BTBCorrect                   0                       # Number of correct BTB predictions (this stat may not work properly.
system.cpu0.branchPred.BTBHitPct            77.881656                       # BTB Hit Percentage
system.cpu0.branchPred.BTBHits               80645146                       # Number of BTB hits
system.cpu0.branchPred.BTBLookups           103548319                       # Number of BTB lookups
system.cpu0.branchPred.RASInCorrect                 0                       # Number of incorrect RAS predictions.
system.cpu0.branchPred.condIncorrect         12161959                       # Number of conditional branches incorrect
system.cpu0.branchPred.condPredicted        123654616                       # Number of conditional branches predicted
system.cpu0.branchPred.indirectHits          11558906                       # Number of indirect target hits.
system.cpu0.branchPred.indirectLookups       11789393                       # Number of indirect predictor lookups.
system.cpu0.branchPred.indirectMisses          230487                       # Number of indirect misses.
system.cpu0.branchPred.lookups              158610661                       # Number of BP lookups
system.cpu0.branchPred.usedRAS                      0                       # Number of times the RAS was used to get a target.
system.cpu0.branchPredindirectMispredicted      1062468                       # Number of mispredicted indirect branches.
system.cpu0.commit.amos                       1018199                       # Number of atomic instructions committed
system.cpu0.commit.branchMispredicts          7563170                       # The number of times a branch was mispredicted
system.cpu0.commit.branches                 143207229                       # Number of branches committed
system.cpu0.commit.bw_lim_events             18223484                       # number cycles where commit BW limit reached
system.cpu0.commit.commitNonSpecStalls        3058500                       # The number of times commit has been forced to stall to communicate backwards
system.cpu0.commit.commitSquashedInsts       56771623                       # The number of squashed insts skipped by commit
system.cpu0.commit.committedInsts           580287937                       # Number of instructions committed
system.cpu0.commit.committedOps             581307430                       # Number of ops (including micro ops) committed
system.cpu0.commit.committed_per_cycle::samples   1079740126                       # Number of insts commited each cycle
system.cpu0.commit.committed_per_cycle::mean     0.538377                       # Number of insts commited each cycle
system.cpu0.commit.committed_per_cycle::stdev     1.344979                       # Number of insts commited each cycle
system.cpu0.commit.committed_per_cycle::underflows            0      0.00%      0.00% # Number of insts commited each cycle
system.cpu0.commit.committed_per_cycle::0    807434960     74.78%     74.78% # Number of insts commited each cycle
system.cpu0.commit.committed_per_cycle::1    161386264     14.95%     89.73% # Number of insts commited each cycle
system.cpu0.commit.committed_per_cycle::2     39719644      3.68%     93.41% # Number of insts commited each cycle
system.cpu0.commit.committed_per_cycle::3     33274937      3.08%     96.49% # Number of insts commited each cycle
system.cpu0.commit.committed_per_cycle::4     11235603      1.04%     97.53% # Number of insts commited each cycle
system.cpu0.commit.committed_per_cycle::5      3429658      0.32%     97.85% # Number of insts commited each cycle
system.cpu0.commit.committed_per_cycle::6      2470539      0.23%     98.07% # Number of insts commited each cycle
system.cpu0.commit.committed_per_cycle::7      2565037      0.24%     98.31% # Number of insts commited each cycle
system.cpu0.commit.committed_per_cycle::8     18223484      1.69%    100.00% # Number of insts commited each cycle
system.cpu0.commit.committed_per_cycle::overflows            0      0.00%    100.00% # Number of insts commited each cycle
system.cpu0.commit.committed_per_cycle::min_value            0                       # Number of insts commited each cycle
system.cpu0.commit.committed_per_cycle::max_value            8                       # Number of insts commited each cycle
system.cpu0.commit.committed_per_cycle::total   1079740126                       # Number of insts commited each cycle
system.cpu0.commit.fp_insts                        65                       # Number of committed floating point instructions.
system.cpu0.commit.function_calls            11887805                       # Number of function calls committed.
system.cpu0.commit.int_insts                561285129                       # Number of committed integer instructions.
system.cpu0.commit.loads                    179953337                       # Number of loads committed
system.cpu0.commit.membars                    2037588                       # Number of memory barriers committed
system.cpu0.commit.op_class_0::No_OpClass      2037597      0.35%      0.35% # Class of committed instruction
system.cpu0.commit.op_class_0::IntAlu       322231545     55.43%     55.78% # Class of committed instruction
system.cpu0.commit.op_class_0::IntMult        4135846      0.71%     56.49% # Class of committed instruction
system.cpu0.commit.op_class_0::IntDiv         1017777      0.18%     56.67% # Class of committed instruction
system.cpu0.commit.op_class_0::FloatAdd             0      0.00%     56.67% # Class of committed instruction
system.cpu0.commit.op_class_0::FloatCmp             6      0.00%     56.67% # Class of committed instruction
system.cpu0.commit.op_class_0::FloatCvt            16      0.00%     56.67% # Class of committed instruction
system.cpu0.commit.op_class_0::FloatMult            0      0.00%     56.67% # Class of committed instruction
system.cpu0.commit.op_class_0::FloatMultAcc            0      0.00%     56.67% # Class of committed instruction
system.cpu0.commit.op_class_0::FloatDiv             2      0.00%     56.67% # Class of committed instruction
system.cpu0.commit.op_class_0::FloatMisc            6      0.00%     56.67% # Class of committed instruction
system.cpu0.commit.op_class_0::FloatSqrt            0      0.00%     56.67% # Class of committed instruction
system.cpu0.commit.op_class_0::SimdAdd              0      0.00%     56.67% # Class of committed instruction
system.cpu0.commit.op_class_0::SimdAddAcc            0      0.00%     56.67% # Class of committed instruction
system.cpu0.commit.op_class_0::SimdAlu              0      0.00%     56.67% # Class of committed instruction
system.cpu0.commit.op_class_0::SimdCmp              0      0.00%     56.67% # Class of committed instruction
system.cpu0.commit.op_class_0::SimdCvt              0      0.00%     56.67% # Class of committed instruction
system.cpu0.commit.op_class_0::SimdMisc             0      0.00%     56.67% # Class of committed instruction
system.cpu0.commit.op_class_0::SimdMult             0      0.00%     56.67% # Class of committed instruction
system.cpu0.commit.op_class_0::SimdMultAcc            0      0.00%     56.67% # Class of committed instruction
system.cpu0.commit.op_class_0::SimdShift            0      0.00%     56.67% # Class of committed instruction
system.cpu0.commit.op_class_0::SimdShiftAcc            0      0.00%     56.67% # Class of committed instruction
system.cpu0.commit.op_class_0::SimdDiv              0      0.00%     56.67% # Class of committed instruction
system.cpu0.commit.op_class_0::SimdSqrt             0      0.00%     56.67% # Class of committed instruction
system.cpu0.commit.op_class_0::SimdFloatAdd            0      0.00%     56.67% # Class of committed instruction
system.cpu0.commit.op_class_0::SimdFloatAlu            0      0.00%     56.67% # Class of committed instruction
system.cpu0.commit.op_class_0::SimdFloatCmp            0      0.00%     56.67% # Class of committed instruction
system.cpu0.commit.op_class_0::SimdFloatCvt            0      0.00%     56.67% # Class of committed instruction
system.cpu0.commit.op_class_0::SimdFloatDiv            0      0.00%     56.67% # Class of committed instruction
system.cpu0.commit.op_class_0::SimdFloatMisc            0      0.00%     56.67% # Class of committed instruction
system.cpu0.commit.op_class_0::SimdFloatMult            0      0.00%     56.67% # Class of committed instruction
system.cpu0.commit.op_class_0::SimdFloatMultAcc            0      0.00%     56.67% # Class of committed instruction
system.cpu0.commit.op_class_0::SimdFloatSqrt            0      0.00%     56.67% # Class of committed instruction
system.cpu0.commit.op_class_0::SimdReduceAdd            0      0.00%     56.67% # Class of committed instruction
system.cpu0.commit.op_class_0::SimdReduceAlu            0      0.00%     56.67% # Class of committed instruction
system.cpu0.commit.op_class_0::SimdReduceCmp            0      0.00%     56.67% # Class of committed instruction
system.cpu0.commit.op_class_0::SimdFloatReduceAdd            0      0.00%     56.67% # Class of committed instruction
system.cpu0.commit.op_class_0::SimdFloatReduceCmp            0      0.00%     56.67% # Class of committed instruction
system.cpu0.commit.op_class_0::SimdAes              0      0.00%     56.67% # Class of committed instruction
system.cpu0.commit.op_class_0::SimdAesMix            0      0.00%     56.67% # Class of committed instruction
system.cpu0.commit.op_class_0::SimdSha1Hash            0      0.00%     56.67% # Class of committed instruction
system.cpu0.commit.op_class_0::SimdSha1Hash2            0      0.00%     56.67% # Class of committed instruction
system.cpu0.commit.op_class_0::SimdSha256Hash            0      0.00%     56.67% # Class of committed instruction
system.cpu0.commit.op_class_0::SimdSha256Hash2            0      0.00%     56.67% # Class of committed instruction
system.cpu0.commit.op_class_0::SimdShaSigma2            0      0.00%     56.67% # Class of committed instruction
system.cpu0.commit.op_class_0::SimdShaSigma3            0      0.00%     56.67% # Class of committed instruction
system.cpu0.commit.op_class_0::SimdPredAlu            0      0.00%     56.67% # Class of committed instruction
system.cpu0.commit.op_class_0::MemRead      180971524     31.13%     87.80% # Class of committed instruction
system.cpu0.commit.op_class_0::MemWrite      70913076     12.20%    100.00% # Class of committed instruction
system.cpu0.commit.op_class_0::FloatMemRead           12      0.00%    100.00% # Class of committed instruction
system.cpu0.commit.op_class_0::FloatMemWrite           23      0.00%    100.00% # Class of committed instruction
system.cpu0.commit.op_class_0::IprAccess            0      0.00%    100.00% # Class of committed instruction
system.cpu0.commit.op_class_0::InstPrefetch            0      0.00%    100.00% # Class of committed instruction
system.cpu0.commit.op_class_0::total        581307430                       # Class of committed instruction
system.cpu0.commit.refs                     251884635                       # Number of memory references committed
system.cpu0.commit.swp_count                        0                       # Number of s/w prefetches committed
system.cpu0.commit.vec_insts                        0                       # Number of committed Vector instructions.
system.cpu0.committedInsts                  580287937                       # Number of Instructions Simulated
system.cpu0.committedOps                    581307430                       # Number of Ops (including micro ops) Simulated
system.cpu0.cpi                              2.064963                       # CPI: Cycles Per Instruction
system.cpu0.cpi_total                        2.064963                       # CPI: Total CPI of All Threads
system.cpu0.decode.BlockedCycles            193487094                       # Number of cycles decode is blocked
system.cpu0.decode.BranchMispred              4609193                       # Number of times decode detected a branch misprediction
system.cpu0.decode.BranchResolved            79809796                       # Number of times decode resolved a branch
system.cpu0.decode.DecodedInsts             656391978                       # Number of instructions handled by decode
system.cpu0.decode.IdleCycles               424293160                       # Number of cycles decode is idle
system.cpu0.decode.RunCycles                463002122                       # Number of cycles decode is running
system.cpu0.decode.SquashCycles               7571096                       # Number of cycles decode is squashing
system.cpu0.decode.SquashedInsts              9553403                       # Number of squashed instructions handled by decode
system.cpu0.decode.UnblockCycles              3920390                       # Number of cycles decode is unblocking
system.cpu0.dtb.accesses                            0                       # DTB accesses
system.cpu0.dtb.hits                                0                       # DTB hits
system.cpu0.dtb.misses                              0                       # DTB misses
system.cpu0.dtb.read_accesses                       0                       # DTB read accesses
system.cpu0.dtb.read_hits                           0                       # DTB read hits
system.cpu0.dtb.read_misses                         0                       # DTB read misses
system.cpu0.dtb.write_accesses                      0                       # DTB write accesses
system.cpu0.dtb.write_hits                          0                       # DTB write hits
system.cpu0.dtb.write_misses                        0                       # DTB write misses
system.cpu0.fetch.Branches                  158610661                       # Number of branches that fetch encountered
system.cpu0.fetch.CacheLines                118374882                       # Number of cache lines fetched
system.cpu0.fetch.Cycles                    663712960                       # Number of cycles fetch has run and was not squashing or blocked
system.cpu0.fetch.IcacheSquashes              2902756                       # Number of outstanding Icache misses that were squashed
system.cpu0.fetch.IcacheWaitRetryStallCycles          185                       # Number of stall cycles due to full MSHR
system.cpu0.fetch.Insts                     672413237                       # Number of instructions fetch has processed
system.cpu0.fetch.MiscStallCycles                 254                       # Number of cycles fetch has spent waiting on interrupts, or bad addresses, or out of MSHRs
system.cpu0.fetch.PendingTrapStallCycles          369                       # Number of stall cycles due to pending traps
system.cpu0.fetch.SquashCycles               24339884                       # Number of cycles fetch has spent squashing
system.cpu0.fetch.branchRate                 0.132366                       # Number of branch fetches per cycle
system.cpu0.fetch.icacheStallCycles         416390152                       # Number of cycles fetch is stalled on an Icache miss
system.cpu0.fetch.predictedBranches          92204052                       # Number of branches that fetch has predicted taken
system.cpu0.fetch.rate                       0.561152                       # Number of inst fetches per cycle
system.cpu0.fetch.rateDist::samples        1092273862                       # Number of instructions fetched each cycle (Total)
system.cpu0.fetch.rateDist::mean             0.616543                       # Number of instructions fetched each cycle (Total)
system.cpu0.fetch.rateDist::stdev            0.868711                       # Number of instructions fetched each cycle (Total)
system.cpu0.fetch.rateDist::underflows              0      0.00%      0.00% # Number of instructions fetched each cycle (Total)
system.cpu0.fetch.rateDist::0               605797724     55.46%     55.46% # Number of instructions fetched each cycle (Total)
system.cpu0.fetch.rateDist::1               366168822     33.52%     88.99% # Number of instructions fetched each cycle (Total)
system.cpu0.fetch.rateDist::2                72660134      6.65%     95.64% # Number of instructions fetched each cycle (Total)
system.cpu0.fetch.rateDist::3                35862411      3.28%     98.92% # Number of instructions fetched each cycle (Total)
system.cpu0.fetch.rateDist::4                 6733350      0.62%     99.54% # Number of instructions fetched each cycle (Total)
system.cpu0.fetch.rateDist::5                 3914642      0.36%     99.90% # Number of instructions fetched each cycle (Total)
system.cpu0.fetch.rateDist::6                  110834      0.01%     99.91% # Number of instructions fetched each cycle (Total)
system.cpu0.fetch.rateDist::7                 1021702      0.09%    100.00% # Number of instructions fetched each cycle (Total)
system.cpu0.fetch.rateDist::8                    4243      0.00%    100.00% # Number of instructions fetched each cycle (Total)
system.cpu0.fetch.rateDist::overflows               0      0.00%    100.00% # Number of instructions fetched each cycle (Total)
system.cpu0.fetch.rateDist::min_value               0                       # Number of instructions fetched each cycle (Total)
system.cpu0.fetch.rateDist::max_value               8                       # Number of instructions fetched each cycle (Total)
system.cpu0.fetch.rateDist::total          1092273862                       # Number of instructions fetched each cycle (Total)
system.cpu0.fp_regfile_reads                       56                       # number of floating regfile reads
system.cpu0.fp_regfile_writes                      34                       # number of floating regfile writes
system.cpu0.idleCycles                      105999482                       # Total number of cycles that the CPU has spent unscheduled due to idling
system.cpu0.iew.branchMispredicts             7634970                       # Number of branch mispredicts detected at execute
system.cpu0.iew.exec_branches               150251848                       # Number of branches executed
system.cpu0.iew.exec_nop                            0                       # number of nop insts executed
system.cpu0.iew.exec_rate                    0.525852                       # Inst execution rate
system.cpu0.iew.exec_refs                   281970349                       # number of memory reference insts executed
system.cpu0.iew.exec_stores                  78220428                       # Number of stores executed
system.cpu0.iew.exec_swp                            0                       # number of swp insts executed
system.cpu0.iew.iewBlockCycles              157369828                       # Number of cycles IEW is blocking
system.cpu0.iew.iewDispLoadInsts            204765863                       # Number of dispatched load instructions
system.cpu0.iew.iewDispNonSpecInsts           1021698                       # Number of dispatched non-speculative instructions
system.cpu0.iew.iewDispSquashedInsts          5355123                       # Number of squashed instructions skipped by dispatch
system.cpu0.iew.iewDispStoreInsts            79028799                       # Number of dispatched store instructions
system.cpu0.iew.iewDispatchedInsts          638061847                       # Number of instructions dispatched to IQ
system.cpu0.iew.iewExecLoadInsts            203749921                       # Number of load instructions executed
system.cpu0.iew.iewExecSquashedInsts          3251354                       # Number of squashed instructions skipped in execute
system.cpu0.iew.iewExecutedInsts            630114400                       # Number of executed instructions
system.cpu0.iew.iewIQFullEvents               1043789                       # Number of times the IQ has become full, causing a stall
system.cpu0.iew.iewIdleCycles                       0                       # Number of cycles IEW is idle
system.cpu0.iew.iewLSQFullEvents              3894920                       # Number of times the LSQ has become full, causing a stall
system.cpu0.iew.iewSquashCycles               7571096                       # Number of cycles IEW is squashing
system.cpu0.iew.iewUnblockCycles              6133165                       # Number of cycles IEW is unblocking
system.cpu0.iew.lsq.thread0.blockedLoads            0                       # Number of blocked loads due to partial load-store forwarding
system.cpu0.iew.lsq.thread0.cacheBlocked        80595                       # Number of times an access to memory failed due to the cache being blocked
system.cpu0.iew.lsq.thread0.forwLoads        11241594                       # Number of loads that had data forwarded from stores
system.cpu0.iew.lsq.thread0.ignoredResponses        29487                       # Number of memory responses ignored because the instruction is squashed
system.cpu0.iew.lsq.thread0.invAddrLoads            0                       # Number of loads ignored due to an invalid address
system.cpu0.iew.lsq.thread0.invAddrSwpfs            0                       # Number of software prefetches ignored due to an invalid address
system.cpu0.iew.lsq.thread0.memOrderViolation         8431                       # Number of memory ordering violations
system.cpu0.iew.lsq.thread0.rescheduledLoads      3278705                       # Number of loads that were rescheduled
system.cpu0.iew.lsq.thread0.squashedLoads     24812526                       # Number of loads squashed
system.cpu0.iew.lsq.thread0.squashedStores      7097501                       # Number of stores squashed
system.cpu0.iew.memOrderViolationEvents          8431                       # Number of memory order violations
system.cpu0.iew.predictedNotTakenIncorrect       851003                       # Number of branches that were predicted not taken incorrectly
system.cpu0.iew.predictedTakenIncorrect       6783967                       # Number of branches that were predicted taken incorrectly
system.cpu0.iew.wb_consumers                265636396                       # num instructions consuming a value
system.cpu0.iew.wb_count                    623118354                       # cumulative count of insts written-back
system.cpu0.iew.wb_fanout                    0.852680                       # average fanout of values written-back
system.cpu0.iew.wb_producers                226502778                       # num instructions producing a value
system.cpu0.iew.wb_rate                      0.520014                       # insts written-back per cycle
system.cpu0.iew.wb_sent                     623173187                       # cumulative count of insts sent to commit
system.cpu0.int_regfile_reads               766937417                       # number of integer regfile reads
system.cpu0.int_regfile_writes              399239279                       # number of integer regfile writes
system.cpu0.ipc                              0.484270                       # IPC: Instructions Per Cycle
system.cpu0.ipc_total                        0.484270                       # IPC: Total IPC of All Threads
system.cpu0.iq.FU_type_0::No_OpClass          2038518      0.32%      0.32% # Type of FU issued
system.cpu0.iq.FU_type_0::IntAlu            342827833     54.13%     54.45% # Type of FU issued
system.cpu0.iq.FU_type_0::IntMult             4139573      0.65%     55.10% # Type of FU issued
system.cpu0.iq.FU_type_0::IntDiv              1018073      0.16%     55.26% # Type of FU issued
system.cpu0.iq.FU_type_0::FloatAdd                  0      0.00%     55.26% # Type of FU issued
system.cpu0.iq.FU_type_0::FloatCmp                  6      0.00%     55.26% # Type of FU issued
system.cpu0.iq.FU_type_0::FloatCvt                 16      0.00%     55.26% # Type of FU issued
system.cpu0.iq.FU_type_0::FloatMult                 0      0.00%     55.26% # Type of FU issued
system.cpu0.iq.FU_type_0::FloatMultAcc              0      0.00%     55.26% # Type of FU issued
system.cpu0.iq.FU_type_0::FloatDiv                  2      0.00%     55.26% # Type of FU issued
system.cpu0.iq.FU_type_0::FloatMisc                 6      0.00%     55.26% # Type of FU issued
system.cpu0.iq.FU_type_0::FloatSqrt                 0      0.00%     55.26% # Type of FU issued
system.cpu0.iq.FU_type_0::SimdAdd                   0      0.00%     55.26% # Type of FU issued
system.cpu0.iq.FU_type_0::SimdAddAcc                0      0.00%     55.26% # Type of FU issued
system.cpu0.iq.FU_type_0::SimdAlu                   0      0.00%     55.26% # Type of FU issued
system.cpu0.iq.FU_type_0::SimdCmp                   0      0.00%     55.26% # Type of FU issued
system.cpu0.iq.FU_type_0::SimdCvt                   0      0.00%     55.26% # Type of FU issued
system.cpu0.iq.FU_type_0::SimdMisc                  0      0.00%     55.26% # Type of FU issued
system.cpu0.iq.FU_type_0::SimdMult                  0      0.00%     55.26% # Type of FU issued
system.cpu0.iq.FU_type_0::SimdMultAcc               0      0.00%     55.26% # Type of FU issued
system.cpu0.iq.FU_type_0::SimdShift                 0      0.00%     55.26% # Type of FU issued
system.cpu0.iq.FU_type_0::SimdShiftAcc              0      0.00%     55.26% # Type of FU issued
system.cpu0.iq.FU_type_0::SimdDiv                   0      0.00%     55.26% # Type of FU issued
system.cpu0.iq.FU_type_0::SimdSqrt                  0      0.00%     55.26% # Type of FU issued
system.cpu0.iq.FU_type_0::SimdFloatAdd              0      0.00%     55.26% # Type of FU issued
system.cpu0.iq.FU_type_0::SimdFloatAlu              0      0.00%     55.26% # Type of FU issued
system.cpu0.iq.FU_type_0::SimdFloatCmp              0      0.00%     55.26% # Type of FU issued
system.cpu0.iq.FU_type_0::SimdFloatCvt              0      0.00%     55.26% # Type of FU issued
system.cpu0.iq.FU_type_0::SimdFloatDiv              0      0.00%     55.26% # Type of FU issued
system.cpu0.iq.FU_type_0::SimdFloatMisc             0      0.00%     55.26% # Type of FU issued
system.cpu0.iq.FU_type_0::SimdFloatMult             0      0.00%     55.26% # Type of FU issued
system.cpu0.iq.FU_type_0::SimdFloatMultAcc            0      0.00%     55.26% # Type of FU issued
system.cpu0.iq.FU_type_0::SimdFloatSqrt             0      0.00%     55.26% # Type of FU issued
system.cpu0.iq.FU_type_0::SimdReduceAdd             0      0.00%     55.26% # Type of FU issued
system.cpu0.iq.FU_type_0::SimdReduceAlu             0      0.00%     55.26% # Type of FU issued
system.cpu0.iq.FU_type_0::SimdReduceCmp             0      0.00%     55.26% # Type of FU issued
system.cpu0.iq.FU_type_0::SimdFloatReduceAdd            0      0.00%     55.26% # Type of FU issued
system.cpu0.iq.FU_type_0::SimdFloatReduceCmp            0      0.00%     55.26% # Type of FU issued
system.cpu0.iq.FU_type_0::SimdAes                   0      0.00%     55.26% # Type of FU issued
system.cpu0.iq.FU_type_0::SimdAesMix                0      0.00%     55.26% # Type of FU issued
system.cpu0.iq.FU_type_0::SimdSha1Hash              0      0.00%     55.26% # Type of FU issued
system.cpu0.iq.FU_type_0::SimdSha1Hash2             0      0.00%     55.26% # Type of FU issued
system.cpu0.iq.FU_type_0::SimdSha256Hash            0      0.00%     55.26% # Type of FU issued
system.cpu0.iq.FU_type_0::SimdSha256Hash2            0      0.00%     55.26% # Type of FU issued
system.cpu0.iq.FU_type_0::SimdShaSigma2             0      0.00%     55.26% # Type of FU issued
system.cpu0.iq.FU_type_0::SimdShaSigma3             0      0.00%     55.26% # Type of FU issued
system.cpu0.iq.FU_type_0::SimdPredAlu               0      0.00%     55.26% # Type of FU issued
system.cpu0.iq.FU_type_0::MemRead           205885126     32.51%     87.77% # Type of FU issued
system.cpu0.iq.FU_type_0::MemWrite           77456563     12.23%    100.00% # Type of FU issued
system.cpu0.iq.FU_type_0::FloatMemRead             16      0.00%    100.00% # Type of FU issued
system.cpu0.iq.FU_type_0::FloatMemWrite            23      0.00%    100.00% # Type of FU issued
system.cpu0.iq.FU_type_0::IprAccess                 0      0.00%    100.00% # Type of FU issued
system.cpu0.iq.FU_type_0::InstPrefetch              0      0.00%    100.00% # Type of FU issued
system.cpu0.iq.FU_type_0::total             633365755                       # Type of FU issued
system.cpu0.iq.fp_alu_accesses                     72                       # Number of floating point alu accesses
system.cpu0.iq.fp_inst_queue_reads                141                       # Number of floating instruction queue reads
system.cpu0.iq.fp_inst_queue_wakeup_accesses           68                       # Number of floating instruction queue wakeup accesses
system.cpu0.iq.fp_inst_queue_writes                83                       # Number of floating instruction queue writes
system.cpu0.iq.fu_busy_cnt                    1316238                       # FU busy when requested
system.cpu0.iq.fu_busy_rate                  0.002078                       # FU busy rate (busy events/executed inst)
system.cpu0.iq.fu_full::No_OpClass                  0      0.00%      0.00% # attempts to use FU when none available
system.cpu0.iq.fu_full::IntAlu                 248010     18.84%     18.84% # attempts to use FU when none available
system.cpu0.iq.fu_full::IntMult                     0      0.00%     18.84% # attempts to use FU when none available
system.cpu0.iq.fu_full::IntDiv                      0      0.00%     18.84% # attempts to use FU when none available
system.cpu0.iq.fu_full::FloatAdd                    0      0.00%     18.84% # attempts to use FU when none available
system.cpu0.iq.fu_full::FloatCmp                    0      0.00%     18.84% # attempts to use FU when none available
system.cpu0.iq.fu_full::FloatCvt                    0      0.00%     18.84% # attempts to use FU when none available
system.cpu0.iq.fu_full::FloatMult                   0      0.00%     18.84% # attempts to use FU when none available
system.cpu0.iq.fu_full::FloatMultAcc                0      0.00%     18.84% # attempts to use FU when none available
system.cpu0.iq.fu_full::FloatDiv                    0      0.00%     18.84% # attempts to use FU when none available
system.cpu0.iq.fu_full::FloatMisc                   0      0.00%     18.84% # attempts to use FU when none available
system.cpu0.iq.fu_full::FloatSqrt                   0      0.00%     18.84% # attempts to use FU when none available
system.cpu0.iq.fu_full::SimdAdd                     0      0.00%     18.84% # attempts to use FU when none available
system.cpu0.iq.fu_full::SimdAddAcc                  0      0.00%     18.84% # attempts to use FU when none available
system.cpu0.iq.fu_full::SimdAlu                     0      0.00%     18.84% # attempts to use FU when none available
system.cpu0.iq.fu_full::SimdCmp                     0      0.00%     18.84% # attempts to use FU when none available
system.cpu0.iq.fu_full::SimdCvt                     0      0.00%     18.84% # attempts to use FU when none available
system.cpu0.iq.fu_full::SimdMisc                    0      0.00%     18.84% # attempts to use FU when none available
system.cpu0.iq.fu_full::SimdMult                    0      0.00%     18.84% # attempts to use FU when none available
system.cpu0.iq.fu_full::SimdMultAcc                 0      0.00%     18.84% # attempts to use FU when none available
system.cpu0.iq.fu_full::SimdShift                   0      0.00%     18.84% # attempts to use FU when none available
system.cpu0.iq.fu_full::SimdShiftAcc                0      0.00%     18.84% # attempts to use FU when none available
system.cpu0.iq.fu_full::SimdDiv                     0      0.00%     18.84% # attempts to use FU when none available
system.cpu0.iq.fu_full::SimdSqrt                    0      0.00%     18.84% # attempts to use FU when none available
system.cpu0.iq.fu_full::SimdFloatAdd                0      0.00%     18.84% # attempts to use FU when none available
system.cpu0.iq.fu_full::SimdFloatAlu                0      0.00%     18.84% # attempts to use FU when none available
system.cpu0.iq.fu_full::SimdFloatCmp                0      0.00%     18.84% # attempts to use FU when none available
system.cpu0.iq.fu_full::SimdFloatCvt                0      0.00%     18.84% # attempts to use FU when none available
system.cpu0.iq.fu_full::SimdFloatDiv                0      0.00%     18.84% # attempts to use FU when none available
system.cpu0.iq.fu_full::SimdFloatMisc               0      0.00%     18.84% # attempts to use FU when none available
system.cpu0.iq.fu_full::SimdFloatMult               0      0.00%     18.84% # attempts to use FU when none available
system.cpu0.iq.fu_full::SimdFloatMultAcc            0      0.00%     18.84% # attempts to use FU when none available
system.cpu0.iq.fu_full::SimdFloatSqrt               0      0.00%     18.84% # attempts to use FU when none available
system.cpu0.iq.fu_full::SimdReduceAdd               0      0.00%     18.84% # attempts to use FU when none available
system.cpu0.iq.fu_full::SimdReduceAlu               0      0.00%     18.84% # attempts to use FU when none available
system.cpu0.iq.fu_full::SimdReduceCmp               0      0.00%     18.84% # attempts to use FU when none available
system.cpu0.iq.fu_full::SimdFloatReduceAdd            0      0.00%     18.84% # attempts to use FU when none available
system.cpu0.iq.fu_full::SimdFloatReduceCmp            0      0.00%     18.84% # attempts to use FU when none available
system.cpu0.iq.fu_full::SimdAes                     0      0.00%     18.84% # attempts to use FU when none available
system.cpu0.iq.fu_full::SimdAesMix                  0      0.00%     18.84% # attempts to use FU when none available
system.cpu0.iq.fu_full::SimdSha1Hash                0      0.00%     18.84% # attempts to use FU when none available
system.cpu0.iq.fu_full::SimdSha1Hash2               0      0.00%     18.84% # attempts to use FU when none available
system.cpu0.iq.fu_full::SimdSha256Hash              0      0.00%     18.84% # attempts to use FU when none available
system.cpu0.iq.fu_full::SimdSha256Hash2             0      0.00%     18.84% # attempts to use FU when none available
system.cpu0.iq.fu_full::SimdShaSigma2               0      0.00%     18.84% # attempts to use FU when none available
system.cpu0.iq.fu_full::SimdShaSigma3               0      0.00%     18.84% # attempts to use FU when none available
system.cpu0.iq.fu_full::SimdPredAlu                 0      0.00%     18.84% # attempts to use FU when none available
system.cpu0.iq.fu_full::MemRead                918247     69.76%     88.61% # attempts to use FU when none available
system.cpu0.iq.fu_full::MemWrite               149978     11.39%    100.00% # attempts to use FU when none available
system.cpu0.iq.fu_full::FloatMemRead                0      0.00%    100.00% # attempts to use FU when none available
system.cpu0.iq.fu_full::FloatMemWrite               3      0.00%    100.00% # attempts to use FU when none available
system.cpu0.iq.fu_full::IprAccess                   0      0.00%    100.00% # attempts to use FU when none available
system.cpu0.iq.fu_full::InstPrefetch                0      0.00%    100.00% # attempts to use FU when none available
system.cpu0.iq.int_alu_accesses             632643403                       # Number of integer alu accesses
system.cpu0.iq.int_inst_queue_reads        2360406132                       # Number of integer instruction queue reads
system.cpu0.iq.int_inst_queue_wakeup_accesses    623118286                       # Number of integer instruction queue wakeup accesses
system.cpu0.iq.int_inst_queue_writes        694823671                       # Number of integer instruction queue writes
system.cpu0.iq.iqInstsAdded                 635002355                       # Number of instructions added to the IQ (excludes non-spec)
system.cpu0.iq.iqInstsIssued                633365755                       # Number of instructions issued
system.cpu0.iq.iqNonSpecInstsAdded            3059492                       # Number of non-speculative instructions added to the IQ
system.cpu0.iq.iqSquashedInstsExamined       56754413                       # Number of squashed instructions iterated over during squash; mainly for profiling
system.cpu0.iq.iqSquashedInstsIssued            84664                       # Number of squashed instructions issued
system.cpu0.iq.iqSquashedNonSpecRemoved           992                       # Number of squashed non-spec instructions that were removed
system.cpu0.iq.iqSquashedOperandsExamined     16069480                       # Number of squashed operands that are examined and possibly removed from graph
system.cpu0.iq.issued_per_cycle::samples   1092273862                       # Number of insts issued each cycle
system.cpu0.iq.issued_per_cycle::mean        0.579860                       # Number of insts issued each cycle
system.cpu0.iq.issued_per_cycle::stdev       0.801895                       # Number of insts issued each cycle
system.cpu0.iq.issued_per_cycle::underflows            0      0.00%      0.00% # Number of insts issued each cycle
system.cpu0.iq.issued_per_cycle::0          627639183     57.46%     57.46% # Number of insts issued each cycle
system.cpu0.iq.issued_per_cycle::1          331135151     30.32%     87.78% # Number of insts issued each cycle
system.cpu0.iq.issued_per_cycle::2          107589321      9.85%     97.63% # Number of insts issued each cycle
system.cpu0.iq.issued_per_cycle::3           19980631      1.83%     99.46% # Number of insts issued each cycle
system.cpu0.iq.issued_per_cycle::4            3628276      0.33%     99.79% # Number of insts issued each cycle
system.cpu0.iq.issued_per_cycle::5            1504932      0.14%     99.93% # Number of insts issued each cycle
system.cpu0.iq.issued_per_cycle::6             576029      0.05%     99.98% # Number of insts issued each cycle
system.cpu0.iq.issued_per_cycle::7             146581      0.01%     99.99% # Number of insts issued each cycle
system.cpu0.iq.issued_per_cycle::8              73758      0.01%    100.00% # Number of insts issued each cycle
system.cpu0.iq.issued_per_cycle::overflows            0      0.00%    100.00% # Number of insts issued each cycle
system.cpu0.iq.issued_per_cycle::min_value            0                       # Number of insts issued each cycle
system.cpu0.iq.issued_per_cycle::max_value            8                       # Number of insts issued each cycle
system.cpu0.iq.issued_per_cycle::total     1092273862                       # Number of insts issued each cycle
system.cpu0.iq.rate                          0.528565                       # Inst issue rate
system.cpu0.iq.vec_alu_accesses                     0                       # Number of vector alu accesses
system.cpu0.iq.vec_inst_queue_reads                 0                       # Number of vector instruction queue reads
system.cpu0.iq.vec_inst_queue_wakeup_accesses            0                       # Number of vector instruction queue wakeup accesses
system.cpu0.iq.vec_inst_queue_writes                0                       # Number of vector instruction queue writes
system.cpu0.itb.accesses                            0                       # DTB accesses
system.cpu0.itb.hits                                0                       # DTB hits
system.cpu0.itb.misses                              0                       # DTB misses
system.cpu0.itb.read_accesses                       0                       # DTB read accesses
system.cpu0.itb.read_hits                           0                       # DTB read hits
system.cpu0.itb.read_misses                         0                       # DTB read misses
system.cpu0.itb.write_accesses                      0                       # DTB write accesses
system.cpu0.itb.write_hits                          0                       # DTB write hits
system.cpu0.itb.write_misses                        0                       # DTB write misses
system.cpu0.memDep0.conflictingLoads          9624592                       # Number of conflicting loads.
system.cpu0.memDep0.conflictingStores         1839568                       # Number of conflicting stores.
system.cpu0.memDep0.insertedLoads           204765863                       # Number of loads inserted to the mem dependence unit.
system.cpu0.memDep0.insertedStores           79028799                       # Number of stores inserted to the mem dependence unit.
system.cpu0.misc_regfile_reads                    895                       # number of misc regfile reads
system.cpu0.misc_regfile_writes                    30                       # number of misc regfile writes
system.cpu0.numCycles                      1198273344                       # number of cpu cycles simulated
system.cpu0.numWorkItemsCompleted                   0                       # number of work items this cpu completed
system.cpu0.numWorkItemsStarted                     0                       # number of work items this cpu started
system.cpu0.quiesceCycles                    11913819                       # Total number of cycles that CPU has spent quiesced or waiting for an interrupt
system.cpu0.rename.BlockCycles              171451821                       # Number of cycles rename is blocking
system.cpu0.rename.CommittedMaps            370571888                       # Number of HB maps that are committed
system.cpu0.rename.IQFullEvents               6481001                       # Number of times rename has blocked due to IQ full
system.cpu0.rename.IdleCycles               434312552                       # Number of cycles rename is idle
system.cpu0.rename.LQFullEvents               6892337                       # Number of times rename has blocked due to LQ full
system.cpu0.rename.ROBFullEvents                20032                       # Number of times rename has blocked due to ROB full
system.cpu0.rename.RenameLookups            791717736                       # Number of register rename lookups that rename has made
system.cpu0.rename.RenamedInsts             650016609                       # Number of instructions processed by rename
system.cpu0.rename.RenamedOperands          419729284                       # Number of destination operands rename has renamed
system.cpu0.rename.RunCycles                456332757                       # Number of cycles rename is running
system.cpu0.rename.SQFullEvents               8815159                       # Number of times rename has blocked due to SQ full
system.cpu0.rename.SquashCycles               7571096                       # Number of cycles rename is squashing
system.cpu0.rename.UnblockCycles             22432739                       # Number of cycles rename is unblocking
system.cpu0.rename.UndoneMaps                49157391                       # Number of HB maps that are undone due to squashing
system.cpu0.rename.fp_rename_lookups               56                       # Number of floating rename lookups
system.cpu0.rename.int_rename_lookups       791717680                       # Number of integer rename lookups
system.cpu0.rename.serializeStallCycles        172897                       # count of cycles rename stalled for serializing inst
system.cpu0.rename.serializingInsts              2852                       # count of serializing insts renamed
system.cpu0.rename.skidInsts                 14283933                       # count of insts added to the skid buffer
system.cpu0.rename.tempSerializingInsts          2851                       # count of temporary serializing insts renamed
system.cpu0.rob.rob_reads                  1699584710                       # The number of ROB reads
system.cpu0.rob.rob_writes                 1288702548                       # The number of ROB writes
system.cpu0.timesIdled                       12381051                       # Number of times that the entire CPU went into an idle state and unscheduled itself
system.cpu0.workload.numSyscalls                  851                       # Number of system calls
system.cpu1.branchPred.BTBCorrect                   0                       # Number of correct BTB predictions (this stat may not work properly.
system.cpu1.branchPred.BTBHitPct            88.770535                       # BTB Hit Percentage
system.cpu1.branchPred.BTBHits                4537916                       # Number of BTB hits
system.cpu1.branchPred.BTBLookups             5111962                       # Number of BTB lookups
system.cpu1.branchPred.RASInCorrect                 0                       # Number of incorrect RAS predictions.
system.cpu1.branchPred.condIncorrect           802838                       # Number of conditional branches incorrect
system.cpu1.branchPred.condPredicted          7789638                       # Number of conditional branches predicted
system.cpu1.branchPred.indirectHits            258272                       # Number of indirect target hits.
system.cpu1.branchPred.indirectLookups         393547                       # Number of indirect predictor lookups.
system.cpu1.branchPred.indirectMisses          135275                       # Number of indirect misses.
system.cpu1.branchPred.lookups                8767826                       # Number of BP lookups
system.cpu1.branchPred.usedRAS                      0                       # Number of times the RAS was used to get a target.
system.cpu1.branchPredindirectMispredicted         3185                       # Number of mispredicted indirect branches.
system.cpu1.commit.amos                       1017926                       # Number of atomic instructions committed
system.cpu1.commit.branchMispredicts           477324                       # The number of times a branch was mispredicted
system.cpu1.commit.branches                   7095536                       # Number of branches committed
system.cpu1.commit.bw_lim_events               811136                       # number cycles where commit BW limit reached
system.cpu1.commit.commitNonSpecStalls        3054442                       # The number of times commit has been forced to stall to communicate backwards
system.cpu1.commit.commitSquashedInsts        4374065                       # The number of squashed insts skipped by commit
system.cpu1.commit.committedInsts            32263100                       # Number of instructions committed
system.cpu1.commit.committedOps              33281201                       # Number of ops (including micro ops) committed
system.cpu1.commit.committed_per_cycle::samples    200262352                       # Number of insts commited each cycle
system.cpu1.commit.committed_per_cycle::mean     0.166188                       # Number of insts commited each cycle
system.cpu1.commit.committed_per_cycle::stdev     0.810520                       # Number of insts commited each cycle
system.cpu1.commit.committed_per_cycle::underflows            0      0.00%      0.00% # Number of insts commited each cycle
system.cpu1.commit.committed_per_cycle::0    186500416     93.13%     93.13% # Number of insts commited each cycle
system.cpu1.commit.committed_per_cycle::1      6918897      3.45%     96.58% # Number of insts commited each cycle
system.cpu1.commit.committed_per_cycle::2      2272292      1.13%     97.72% # Number of insts commited each cycle
system.cpu1.commit.committed_per_cycle::3      2025576      1.01%     98.73% # Number of insts commited each cycle
system.cpu1.commit.committed_per_cycle::4       522350      0.26%     98.99% # Number of insts commited each cycle
system.cpu1.commit.committed_per_cycle::5       180750      0.09%     99.08% # Number of insts commited each cycle
system.cpu1.commit.committed_per_cycle::6       957791      0.48%     99.56% # Number of insts commited each cycle
system.cpu1.commit.committed_per_cycle::7        73144      0.04%     99.59% # Number of insts commited each cycle
system.cpu1.commit.committed_per_cycle::8       811136      0.41%    100.00% # Number of insts commited each cycle
system.cpu1.commit.committed_per_cycle::overflows            0      0.00%    100.00% # Number of insts commited each cycle
system.cpu1.commit.committed_per_cycle::min_value            0                       # Number of insts commited each cycle
system.cpu1.commit.committed_per_cycle::max_value            8                       # Number of insts commited each cycle
system.cpu1.commit.committed_per_cycle::total    200262352                       # Number of insts commited each cycle
system.cpu1.commit.fp_insts                        12                       # Number of committed floating point instructions.
system.cpu1.commit.function_calls              320820                       # Number of function calls committed.
system.cpu1.commit.int_insts                 31047873                       # Number of committed integer instructions.
system.cpu1.commit.loads                      9248581                       # Number of loads committed
system.cpu1.commit.membars                    2035977                       # Number of memory barriers committed
system.cpu1.commit.op_class_0::No_OpClass      2035977      6.12%      6.12% # Class of committed instruction
system.cpu1.commit.op_class_0::IntAlu        19082709     57.34%     63.46% # Class of committed instruction
system.cpu1.commit.op_class_0::IntMult             42      0.00%     63.46% # Class of committed instruction
system.cpu1.commit.op_class_0::IntDiv              84      0.00%     63.46% # Class of committed instruction
system.cpu1.commit.op_class_0::FloatAdd             0      0.00%     63.46% # Class of committed instruction
system.cpu1.commit.op_class_0::FloatCmp             0      0.00%     63.46% # Class of committed instruction
system.cpu1.commit.op_class_0::FloatCvt             0      0.00%     63.46% # Class of committed instruction
system.cpu1.commit.op_class_0::FloatMult            0      0.00%     63.46% # Class of committed instruction
system.cpu1.commit.op_class_0::FloatMultAcc            0      0.00%     63.46% # Class of committed instruction
system.cpu1.commit.op_class_0::FloatDiv             0      0.00%     63.46% # Class of committed instruction
system.cpu1.commit.op_class_0::FloatMisc            0      0.00%     63.46% # Class of committed instruction
system.cpu1.commit.op_class_0::FloatSqrt            0      0.00%     63.46% # Class of committed instruction
system.cpu1.commit.op_class_0::SimdAdd              0      0.00%     63.46% # Class of committed instruction
system.cpu1.commit.op_class_0::SimdAddAcc            0      0.00%     63.46% # Class of committed instruction
system.cpu1.commit.op_class_0::SimdAlu              0      0.00%     63.46% # Class of committed instruction
system.cpu1.commit.op_class_0::SimdCmp              0      0.00%     63.46% # Class of committed instruction
system.cpu1.commit.op_class_0::SimdCvt              0      0.00%     63.46% # Class of committed instruction
system.cpu1.commit.op_class_0::SimdMisc             0      0.00%     63.46% # Class of committed instruction
system.cpu1.commit.op_class_0::SimdMult             0      0.00%     63.46% # Class of committed instruction
system.cpu1.commit.op_class_0::SimdMultAcc            0      0.00%     63.46% # Class of committed instruction
system.cpu1.commit.op_class_0::SimdShift            0      0.00%     63.46% # Class of committed instruction
system.cpu1.commit.op_class_0::SimdShiftAcc            0      0.00%     63.46% # Class of committed instruction
system.cpu1.commit.op_class_0::SimdDiv              0      0.00%     63.46% # Class of committed instruction
system.cpu1.commit.op_class_0::SimdSqrt             0      0.00%     63.46% # Class of committed instruction
system.cpu1.commit.op_class_0::SimdFloatAdd            0      0.00%     63.46% # Class of committed instruction
system.cpu1.commit.op_class_0::SimdFloatAlu            0      0.00%     63.46% # Class of committed instruction
system.cpu1.commit.op_class_0::SimdFloatCmp            0      0.00%     63.46% # Class of committed instruction
system.cpu1.commit.op_class_0::SimdFloatCvt            0      0.00%     63.46% # Class of committed instruction
system.cpu1.commit.op_class_0::SimdFloatDiv            0      0.00%     63.46% # Class of committed instruction
system.cpu1.commit.op_class_0::SimdFloatMisc            0      0.00%     63.46% # Class of committed instruction
system.cpu1.commit.op_class_0::SimdFloatMult            0      0.00%     63.46% # Class of committed instruction
system.cpu1.commit.op_class_0::SimdFloatMultAcc            0      0.00%     63.46% # Class of committed instruction
system.cpu1.commit.op_class_0::SimdFloatSqrt            0      0.00%     63.46% # Class of committed instruction
system.cpu1.commit.op_class_0::SimdReduceAdd            0      0.00%     63.46% # Class of committed instruction
system.cpu1.commit.op_class_0::SimdReduceAlu            0      0.00%     63.46% # Class of committed instruction
system.cpu1.commit.op_class_0::SimdReduceCmp            0      0.00%     63.46% # Class of committed instruction
system.cpu1.commit.op_class_0::SimdFloatReduceAdd            0      0.00%     63.46% # Class of committed instruction
system.cpu1.commit.op_class_0::SimdFloatReduceCmp            0      0.00%     63.46% # Class of committed instruction
system.cpu1.commit.op_class_0::SimdAes              0      0.00%     63.46% # Class of committed instruction
system.cpu1.commit.op_class_0::SimdAesMix            0      0.00%     63.46% # Class of committed instruction
system.cpu1.commit.op_class_0::SimdSha1Hash            0      0.00%     63.46% # Class of committed instruction
system.cpu1.commit.op_class_0::SimdSha1Hash2            0      0.00%     63.46% # Class of committed instruction
system.cpu1.commit.op_class_0::SimdSha256Hash            0      0.00%     63.46% # Class of committed instruction
system.cpu1.commit.op_class_0::SimdSha256Hash2            0      0.00%     63.46% # Class of committed instruction
system.cpu1.commit.op_class_0::SimdShaSigma2            0      0.00%     63.46% # Class of committed instruction
system.cpu1.commit.op_class_0::SimdShaSigma3            0      0.00%     63.46% # Class of committed instruction
system.cpu1.commit.op_class_0::SimdPredAlu            0      0.00%     63.46% # Class of committed instruction
system.cpu1.commit.op_class_0::MemRead       10266507     30.85%     94.30% # Class of committed instruction
system.cpu1.commit.op_class_0::MemWrite       1895870      5.70%    100.00% # Class of committed instruction
system.cpu1.commit.op_class_0::FloatMemRead            0      0.00%    100.00% # Class of committed instruction
system.cpu1.commit.op_class_0::FloatMemWrite           12      0.00%    100.00% # Class of committed instruction
system.cpu1.commit.op_class_0::IprAccess            0      0.00%    100.00% # Class of committed instruction
system.cpu1.commit.op_class_0::InstPrefetch            0      0.00%    100.00% # Class of committed instruction
system.cpu1.commit.op_class_0::total         33281201                       # Class of committed instruction
system.cpu1.commit.refs                      12162389                       # Number of memory references committed
system.cpu1.commit.swp_count                        0                       # Number of s/w prefetches committed
system.cpu1.commit.vec_insts                        0                       # Number of committed Vector instructions.
system.cpu1.committedInsts                   32263100                       # Number of Instructions Simulated
system.cpu1.committedOps                     33281201                       # Number of Ops (including micro ops) Simulated
system.cpu1.cpi                              6.241993                       # CPI: Cycles Per Instruction
system.cpu1.cpi_total                        6.241993                       # CPI: Total CPI of All Threads
system.cpu1.decode.BlockedCycles            180165541                       # Number of cycles decode is blocked
system.cpu1.decode.BranchMispred               328815                       # Number of times decode detected a branch misprediction
system.cpu1.decode.BranchResolved             4354282                       # Number of times decode resolved a branch
system.cpu1.decode.DecodedInsts              39633804                       # Number of instructions handled by decode
system.cpu1.decode.IdleCycles                 5386272                       # Number of cycles decode is idle
system.cpu1.decode.RunCycles                 12774429                       # Number of cycles decode is running
system.cpu1.decode.SquashCycles                477546                       # Number of cycles decode is squashing
system.cpu1.decode.SquashedInsts               613834                       # Number of squashed instructions handled by decode
system.cpu1.decode.UnblockCycles              2312939                       # Number of cycles decode is unblocking
system.cpu1.dtb.accesses                            0                       # DTB accesses
system.cpu1.dtb.hits                                0                       # DTB hits
system.cpu1.dtb.misses                              0                       # DTB misses
system.cpu1.dtb.read_accesses                       0                       # DTB read accesses
system.cpu1.dtb.read_hits                           0                       # DTB read hits
system.cpu1.dtb.read_misses                         0                       # DTB read misses
system.cpu1.dtb.write_accesses                      0                       # DTB write accesses
system.cpu1.dtb.write_hits                          0                       # DTB write hits
system.cpu1.dtb.write_misses                        0                       # DTB write misses
system.cpu1.fetch.Branches                    8767826                       # Number of branches that fetch encountered
system.cpu1.fetch.CacheLines                  5000422                       # Number of cache lines fetched
system.cpu1.fetch.Cycles                    194815504                       # Number of cycles fetch has run and was not squashing or blocked
system.cpu1.fetch.IcacheSquashes                56013                       # Number of outstanding Icache misses that were squashed
system.cpu1.fetch.Insts                      40527558                       # Number of instructions fetch has processed
system.cpu1.fetch.MiscStallCycles                   1                       # Number of cycles fetch has spent waiting on interrupts, or bad addresses, or out of MSHRs
system.cpu1.fetch.SquashCycles                1606120                       # Number of cycles fetch has spent squashing
system.cpu1.fetch.branchRate                 0.043537                       # Number of branch fetches per cycle
system.cpu1.fetch.icacheStallCycles           5498162                       # Number of cycles fetch is stalled on an Icache miss
system.cpu1.fetch.predictedBranches           4796188                       # Number of branches that fetch has predicted taken
system.cpu1.fetch.rate                       0.201243                       # Number of inst fetches per cycle
system.cpu1.fetch.rateDist::samples         201116727                       # Number of instructions fetched each cycle (Total)
system.cpu1.fetch.rateDist::mean             0.206578                       # Number of instructions fetched each cycle (Total)
system.cpu1.fetch.rateDist::stdev            0.646166                       # Number of instructions fetched each cycle (Total)
system.cpu1.fetch.rateDist::underflows              0      0.00%      0.00% # Number of instructions fetched each cycle (Total)
system.cpu1.fetch.rateDist::0               176197994     87.61%     87.61% # Number of instructions fetched each cycle (Total)
system.cpu1.fetch.rateDist::1                14559765      7.24%     94.85% # Number of instructions fetched each cycle (Total)
system.cpu1.fetch.rateDist::2                 6080276      3.02%     97.87% # Number of instructions fetched each cycle (Total)
system.cpu1.fetch.rateDist::3                 2826983      1.41%     99.28% # Number of instructions fetched each cycle (Total)
system.cpu1.fetch.rateDist::4                  993385      0.49%     99.77% # Number of instructions fetched each cycle (Total)
system.cpu1.fetch.rateDist::5                  378895      0.19%     99.96% # Number of instructions fetched each cycle (Total)
system.cpu1.fetch.rateDist::6                   79217      0.04%    100.00% # Number of instructions fetched each cycle (Total)
system.cpu1.fetch.rateDist::7                      58      0.00%    100.00% # Number of instructions fetched each cycle (Total)
system.cpu1.fetch.rateDist::8                     154      0.00%    100.00% # Number of instructions fetched each cycle (Total)
system.cpu1.fetch.rateDist::overflows               0      0.00%    100.00% # Number of instructions fetched each cycle (Total)
system.cpu1.fetch.rateDist::min_value               0                       # Number of instructions fetched each cycle (Total)
system.cpu1.fetch.rateDist::max_value               8                       # Number of instructions fetched each cycle (Total)
system.cpu1.fetch.rateDist::total           201116727                       # Number of instructions fetched each cycle (Total)
system.cpu1.fp_regfile_reads                       12                       # number of floating regfile reads
system.cpu1.idleCycles                         269317                       # Total number of cycles that the CPU has spent unscheduled due to idling
system.cpu1.iew.branchMispredicts              508787                       # Number of branch mispredicts detected at execute
system.cpu1.iew.exec_branches                 7726220                       # Number of branches executed
system.cpu1.iew.exec_nop                            0                       # number of nop insts executed
system.cpu1.iew.exec_rate                    0.180400                       # Inst execution rate
system.cpu1.iew.exec_refs                    12969559                       # number of memory reference insts executed
system.cpu1.iew.exec_stores                   2945018                       # Number of stores executed
system.cpu1.iew.exec_swp                            0                       # number of swp insts executed
system.cpu1.iew.iewBlockCycles              155311320                       # Number of cycles IEW is blocking
system.cpu1.iew.iewDispLoadInsts             10087227                       # Number of dispatched load instructions
system.cpu1.iew.iewDispNonSpecInsts           1018634                       # Number of dispatched non-speculative instructions
system.cpu1.iew.iewDispSquashedInsts           578864                       # Number of squashed instructions skipped by dispatch
system.cpu1.iew.iewDispStoreInsts             2977941                       # Number of dispatched store instructions
system.cpu1.iew.iewDispatchedInsts           37647609                       # Number of instructions dispatched to IQ
system.cpu1.iew.iewExecLoadInsts             10024541                       # Number of load instructions executed
system.cpu1.iew.iewExecSquashedInsts           571754                       # Number of squashed instructions skipped in execute
system.cpu1.iew.iewExecutedInsts             36329985                       # Number of executed instructions
system.cpu1.iew.iewIQFullEvents                963343                       # Number of times the IQ has become full, causing a stall
system.cpu1.iew.iewIdleCycles                       0                       # Number of cycles IEW is idle
system.cpu1.iew.iewLSQFullEvents              2120329                       # Number of times the LSQ has become full, causing a stall
system.cpu1.iew.iewSquashCycles                477546                       # Number of cycles IEW is squashing
system.cpu1.iew.iewUnblockCycles              4215173                       # Number of cycles IEW is unblocking
system.cpu1.iew.lsq.thread0.blockedLoads            0                       # Number of blocked loads due to partial load-store forwarding
system.cpu1.iew.lsq.thread0.cacheBlocked        18904                       # Number of times an access to memory failed due to the cache being blocked
system.cpu1.iew.lsq.thread0.forwLoads          149574                       # Number of loads that had data forwarded from stores
system.cpu1.iew.lsq.thread0.ignoredResponses         4483                       # Number of memory responses ignored because the instruction is squashed
system.cpu1.iew.lsq.thread0.invAddrLoads            0                       # Number of loads ignored due to an invalid address
system.cpu1.iew.lsq.thread0.invAddrSwpfs            0                       # Number of software prefetches ignored due to an invalid address
system.cpu1.iew.lsq.thread0.memOrderViolation          175                       # Number of memory ordering violations
system.cpu1.iew.lsq.thread0.rescheduledLoads          383                       # Number of loads that were rescheduled
system.cpu1.iew.lsq.thread0.squashedLoads       838646                       # Number of loads squashed
system.cpu1.iew.lsq.thread0.squashedStores        64133                       # Number of stores squashed
system.cpu1.iew.memOrderViolationEvents           175                       # Number of memory order violations
system.cpu1.iew.predictedNotTakenIncorrect        91535                       # Number of branches that were predicted not taken incorrectly
system.cpu1.iew.predictedTakenIncorrect        417252                       # Number of branches that were predicted taken incorrectly
system.cpu1.iew.wb_consumers                 21165704                       # num instructions consuming a value
system.cpu1.iew.wb_count                     36061183                       # cumulative count of insts written-back
system.cpu1.iew.wb_fanout                    0.871217                       # average fanout of values written-back
system.cpu1.iew.wb_producers                 18439919                       # num instructions producing a value
system.cpu1.iew.wb_rate                      0.179065                       # insts written-back per cycle
system.cpu1.iew.wb_sent                      36070854                       # cumulative count of insts sent to commit
system.cpu1.int_regfile_reads                44662671                       # number of integer regfile reads
system.cpu1.int_regfile_writes               24577736                       # number of integer regfile writes
system.cpu1.ipc                              0.160205                       # IPC: Instructions Per Cycle
system.cpu1.ipc_total                        0.160205                       # IPC: Total IPC of All Threads
system.cpu1.iq.FU_type_0::No_OpClass          2036081      5.52%      5.52% # Type of FU issued
system.cpu1.iq.FU_type_0::IntAlu             21826100     59.15%     64.66% # Type of FU issued
system.cpu1.iq.FU_type_0::IntMult                  44      0.00%     64.66% # Type of FU issued
system.cpu1.iq.FU_type_0::IntDiv                   86      0.00%     64.66% # Type of FU issued
system.cpu1.iq.FU_type_0::FloatAdd                  0      0.00%     64.66% # Type of FU issued
system.cpu1.iq.FU_type_0::FloatCmp                  0      0.00%     64.66% # Type of FU issued
system.cpu1.iq.FU_type_0::FloatCvt                  0      0.00%     64.66% # Type of FU issued
system.cpu1.iq.FU_type_0::FloatMult                 0      0.00%     64.66% # Type of FU issued
system.cpu1.iq.FU_type_0::FloatMultAcc              0      0.00%     64.66% # Type of FU issued
system.cpu1.iq.FU_type_0::FloatDiv                  0      0.00%     64.66% # Type of FU issued
system.cpu1.iq.FU_type_0::FloatMisc                 0      0.00%     64.66% # Type of FU issued
system.cpu1.iq.FU_type_0::FloatSqrt                 0      0.00%     64.66% # Type of FU issued
system.cpu1.iq.FU_type_0::SimdAdd                   0      0.00%     64.66% # Type of FU issued
system.cpu1.iq.FU_type_0::SimdAddAcc                0      0.00%     64.66% # Type of FU issued
system.cpu1.iq.FU_type_0::SimdAlu                   0      0.00%     64.66% # Type of FU issued
system.cpu1.iq.FU_type_0::SimdCmp                   0      0.00%     64.66% # Type of FU issued
system.cpu1.iq.FU_type_0::SimdCvt                   0      0.00%     64.66% # Type of FU issued
system.cpu1.iq.FU_type_0::SimdMisc                  0      0.00%     64.66% # Type of FU issued
system.cpu1.iq.FU_type_0::SimdMult                  0      0.00%     64.66% # Type of FU issued
system.cpu1.iq.FU_type_0::SimdMultAcc               0      0.00%     64.66% # Type of FU issued
system.cpu1.iq.FU_type_0::SimdShift                 0      0.00%     64.66% # Type of FU issued
system.cpu1.iq.FU_type_0::SimdShiftAcc              0      0.00%     64.66% # Type of FU issued
system.cpu1.iq.FU_type_0::SimdDiv                   0      0.00%     64.66% # Type of FU issued
system.cpu1.iq.FU_type_0::SimdSqrt                  0      0.00%     64.66% # Type of FU issued
system.cpu1.iq.FU_type_0::SimdFloatAdd              0      0.00%     64.66% # Type of FU issued
system.cpu1.iq.FU_type_0::SimdFloatAlu              0      0.00%     64.66% # Type of FU issued
system.cpu1.iq.FU_type_0::SimdFloatCmp              0      0.00%     64.66% # Type of FU issued
system.cpu1.iq.FU_type_0::SimdFloatCvt              0      0.00%     64.66% # Type of FU issued
system.cpu1.iq.FU_type_0::SimdFloatDiv              0      0.00%     64.66% # Type of FU issued
system.cpu1.iq.FU_type_0::SimdFloatMisc             0      0.00%     64.66% # Type of FU issued
system.cpu1.iq.FU_type_0::SimdFloatMult             0      0.00%     64.66% # Type of FU issued
system.cpu1.iq.FU_type_0::SimdFloatMultAcc            0      0.00%     64.66% # Type of FU issued
system.cpu1.iq.FU_type_0::SimdFloatSqrt             0      0.00%     64.66% # Type of FU issued
system.cpu1.iq.FU_type_0::SimdReduceAdd             0      0.00%     64.66% # Type of FU issued
system.cpu1.iq.FU_type_0::SimdReduceAlu             0      0.00%     64.66% # Type of FU issued
system.cpu1.iq.FU_type_0::SimdReduceCmp             0      0.00%     64.66% # Type of FU issued
system.cpu1.iq.FU_type_0::SimdFloatReduceAdd            0      0.00%     64.66% # Type of FU issued
system.cpu1.iq.FU_type_0::SimdFloatReduceCmp            0      0.00%     64.66% # Type of FU issued
system.cpu1.iq.FU_type_0::SimdAes                   0      0.00%     64.66% # Type of FU issued
system.cpu1.iq.FU_type_0::SimdAesMix                0      0.00%     64.66% # Type of FU issued
system.cpu1.iq.FU_type_0::SimdSha1Hash              0      0.00%     64.66% # Type of FU issued
system.cpu1.iq.FU_type_0::SimdSha1Hash2             0      0.00%     64.66% # Type of FU issued
system.cpu1.iq.FU_type_0::SimdSha256Hash            0      0.00%     64.66% # Type of FU issued
system.cpu1.iq.FU_type_0::SimdSha256Hash2            0      0.00%     64.66% # Type of FU issued
system.cpu1.iq.FU_type_0::SimdShaSigma2             0      0.00%     64.66% # Type of FU issued
system.cpu1.iq.FU_type_0::SimdShaSigma3             0      0.00%     64.66% # Type of FU issued
system.cpu1.iq.FU_type_0::SimdPredAlu               0      0.00%     64.66% # Type of FU issued
system.cpu1.iq.FU_type_0::MemRead            11104639     30.09%     94.76% # Type of FU issued
system.cpu1.iq.FU_type_0::MemWrite            1934777      5.24%    100.00% # Type of FU issued
system.cpu1.iq.FU_type_0::FloatMemRead              0      0.00%    100.00% # Type of FU issued
system.cpu1.iq.FU_type_0::FloatMemWrite            12      0.00%    100.00% # Type of FU issued
system.cpu1.iq.FU_type_0::IprAccess                 0      0.00%    100.00% # Type of FU issued
system.cpu1.iq.FU_type_0::InstPrefetch              0      0.00%    100.00% # Type of FU issued
system.cpu1.iq.FU_type_0::total              36901739                       # Type of FU issued
system.cpu1.iq.fp_alu_accesses                     15                       # Number of floating point alu accesses
system.cpu1.iq.fp_inst_queue_reads                 27                       # Number of floating instruction queue reads
system.cpu1.iq.fp_inst_queue_wakeup_accesses           12                       # Number of floating instruction queue wakeup accesses
system.cpu1.iq.fp_inst_queue_writes                12                       # Number of floating instruction queue writes
system.cpu1.iq.fu_busy_cnt                    1103402                       # FU busy when requested
system.cpu1.iq.fu_busy_rate                  0.029901                       # FU busy rate (busy events/executed inst)
system.cpu1.iq.fu_full::No_OpClass                  0      0.00%      0.00% # attempts to use FU when none available
system.cpu1.iq.fu_full::IntAlu                 201715     18.28%     18.28% # attempts to use FU when none available
system.cpu1.iq.fu_full::IntMult                     0      0.00%     18.28% # attempts to use FU when none available
system.cpu1.iq.fu_full::IntDiv                      0      0.00%     18.28% # attempts to use FU when none available
system.cpu1.iq.fu_full::FloatAdd                    0      0.00%     18.28% # attempts to use FU when none available
system.cpu1.iq.fu_full::FloatCmp                    0      0.00%     18.28% # attempts to use FU when none available
system.cpu1.iq.fu_full::FloatCvt                    0      0.00%     18.28% # attempts to use FU when none available
system.cpu1.iq.fu_full::FloatMult                   0      0.00%     18.28% # attempts to use FU when none available
system.cpu1.iq.fu_full::FloatMultAcc                0      0.00%     18.28% # attempts to use FU when none available
system.cpu1.iq.fu_full::FloatDiv                    0      0.00%     18.28% # attempts to use FU when none available
system.cpu1.iq.fu_full::FloatMisc                   0      0.00%     18.28% # attempts to use FU when none available
system.cpu1.iq.fu_full::FloatSqrt                   0      0.00%     18.28% # attempts to use FU when none available
system.cpu1.iq.fu_full::SimdAdd                     0      0.00%     18.28% # attempts to use FU when none available
system.cpu1.iq.fu_full::SimdAddAcc                  0      0.00%     18.28% # attempts to use FU when none available
system.cpu1.iq.fu_full::SimdAlu                     0      0.00%     18.28% # attempts to use FU when none available
system.cpu1.iq.fu_full::SimdCmp                     0      0.00%     18.28% # attempts to use FU when none available
system.cpu1.iq.fu_full::SimdCvt                     0      0.00%     18.28% # attempts to use FU when none available
system.cpu1.iq.fu_full::SimdMisc                    0      0.00%     18.28% # attempts to use FU when none available
system.cpu1.iq.fu_full::SimdMult                    0      0.00%     18.28% # attempts to use FU when none available
system.cpu1.iq.fu_full::SimdMultAcc                 0      0.00%     18.28% # attempts to use FU when none available
system.cpu1.iq.fu_full::SimdShift                   0      0.00%     18.28% # attempts to use FU when none available
system.cpu1.iq.fu_full::SimdShiftAcc                0      0.00%     18.28% # attempts to use FU when none available
system.cpu1.iq.fu_full::SimdDiv                     0      0.00%     18.28% # attempts to use FU when none available
system.cpu1.iq.fu_full::SimdSqrt                    0      0.00%     18.28% # attempts to use FU when none available
system.cpu1.iq.fu_full::SimdFloatAdd                0      0.00%     18.28% # attempts to use FU when none available
system.cpu1.iq.fu_full::SimdFloatAlu                0      0.00%     18.28% # attempts to use FU when none available
system.cpu1.iq.fu_full::SimdFloatCmp                0      0.00%     18.28% # attempts to use FU when none available
system.cpu1.iq.fu_full::SimdFloatCvt                0      0.00%     18.28% # attempts to use FU when none available
system.cpu1.iq.fu_full::SimdFloatDiv                0      0.00%     18.28% # attempts to use FU when none available
system.cpu1.iq.fu_full::SimdFloatMisc               0      0.00%     18.28% # attempts to use FU when none available
system.cpu1.iq.fu_full::SimdFloatMult               0      0.00%     18.28% # attempts to use FU when none available
system.cpu1.iq.fu_full::SimdFloatMultAcc            0      0.00%     18.28% # attempts to use FU when none available
system.cpu1.iq.fu_full::SimdFloatSqrt               0      0.00%     18.28% # attempts to use FU when none available
system.cpu1.iq.fu_full::SimdReduceAdd               0      0.00%     18.28% # attempts to use FU when none available
system.cpu1.iq.fu_full::SimdReduceAlu               0      0.00%     18.28% # attempts to use FU when none available
system.cpu1.iq.fu_full::SimdReduceCmp               0      0.00%     18.28% # attempts to use FU when none available
system.cpu1.iq.fu_full::SimdFloatReduceAdd            0      0.00%     18.28% # attempts to use FU when none available
system.cpu1.iq.fu_full::SimdFloatReduceCmp            0      0.00%     18.28% # attempts to use FU when none available
system.cpu1.iq.fu_full::SimdAes                     0      0.00%     18.28% # attempts to use FU when none available
system.cpu1.iq.fu_full::SimdAesMix                  0      0.00%     18.28% # attempts to use FU when none available
system.cpu1.iq.fu_full::SimdSha1Hash                0      0.00%     18.28% # attempts to use FU when none available
system.cpu1.iq.fu_full::SimdSha1Hash2               0      0.00%     18.28% # attempts to use FU when none available
system.cpu1.iq.fu_full::SimdSha256Hash              0      0.00%     18.28% # attempts to use FU when none available
system.cpu1.iq.fu_full::SimdSha256Hash2             0      0.00%     18.28% # attempts to use FU when none available
system.cpu1.iq.fu_full::SimdShaSigma2               0      0.00%     18.28% # attempts to use FU when none available
system.cpu1.iq.fu_full::SimdShaSigma3               0      0.00%     18.28% # attempts to use FU when none available
system.cpu1.iq.fu_full::SimdPredAlu                 0      0.00%     18.28% # attempts to use FU when none available
system.cpu1.iq.fu_full::MemRead                809688     73.38%     91.66% # attempts to use FU when none available
system.cpu1.iq.fu_full::MemWrite                91996      8.34%    100.00% # attempts to use FU when none available
[...]
system.cpu1.dcache.ReadReq_avg_miss_latency::total 81993.688941                       # average ReadReq miss latency
system.cpu1.dcache.ReadReq_mshr_hits::.cpu1.data     79981785                       # number of ReadReq MSHR hits
system.cpu1.dcache.ReadReq_mshr_hits::total     79981785                       # number of ReadReq MSHR hits
system.cpu1.dcache.ReadReq_mshr_misses::.cpu1.data     68184881                       # number of ReadReq MSHR misses
system.cpu1.dcache.ReadReq_mshr_misses::total     68184881                       # number of ReadReq MSHR misses
system.cpu1.dcache.ReadReq_mshr_miss_latency::.cpu1.data 6361378330000                       # number of ReadReq MSHR miss cycles
system.cpu1.dcache.ReadReq_mshr_miss_latency::total 6361378330000                       # number of ReadReq MSHR miss cycles
system.cpu1.dcache.ReadReq_mshr_miss_rate::.cpu1.data     0.243876                       # mshr miss rate for ReadReq accesses
system.cpu1.dcache.ReadReq_mshr_miss_rate::total     0.243876                       # mshr miss rate for ReadReq accesses
system.cpu1.dcache.ReadReq_avg_mshr_miss_latency::.cpu1.data 93296.024525                       # average ReadReq mshr miss latency
system.cpu1.dcache.ReadReq_avg_mshr_miss_latency::total 93296.024525                       # average ReadReq mshr miss latency
system.cpu1.dcache.WriteReq_hits::.cpu1.data     19052081                       # number of WriteReq hits
system.cpu1.dcache.WriteReq_hits::total      19052081                       # number of WriteReq hits
system.cpu1.dcache.WriteReq_misses::.cpu1.data      6247467                       # number of WriteReq misses
system.cpu1.dcache.WriteReq_misses::total      6247467                       # number of WriteReq misses
system.cpu1.dcache.WriteReq_miss_latency::.cpu1.data 372608857900                       # number of WriteReq miss cycles
system.cpu1.dcache.WriteReq_miss_latency::total 372608857900                       # number of WriteReq miss cycles
system.cpu1.dcache.WriteReq_accesses::.cpu1.data     25299548                       # number of WriteReq accesses(hits+misses)
system.cpu1.dcache.WriteReq_accesses::total     25299548                       # number of WriteReq accesses(hits+misses)
system.cpu1.dcache.WriteReq_miss_rate::.cpu1.data     0.246940                       # miss rate for WriteReq accesses
system.cpu1.dcache.WriteReq_miss_rate::total     0.246940                       # miss rate for WriteReq accesses
system.cpu1.dcache.WriteReq_avg_miss_latency::.cpu1.data 59641.588807                       # average WriteReq miss latency
system.cpu1.dcache.WriteReq_avg_miss_latency::total 59641.588807                       # average WriteReq miss latency
system.cpu1.dcache.WriteReq_mshr_hits::.cpu1.data      4922285                       # number of WriteReq MSHR hits
system.cpu1.dcache.WriteReq_mshr_hits::total      4922285                       # number of WriteReq MSHR hits
system.cpu1.dcache.WriteReq_mshr_misses::.cpu1.data      1325182                       # number of WriteReq MSHR misses
system.cpu1.dcache.WriteReq_mshr_misses::total      1325182                       # number of WriteReq MSHR misses
system.cpu1.dcache.WriteReq_mshr_miss_latency::.cpu1.data  89881177323                       # number of WriteReq MSHR miss cycles
system.cpu1.dcache.WriteReq_mshr_miss_latency::total  89881177323                       # number of WriteReq MSHR miss cycles
system.cpu1.dcache.WriteReq_mshr_miss_rate::.cpu1.data     0.052380                       # mshr miss rate for WriteReq accesses
system.cpu1.dcache.WriteReq_mshr_miss_rate::total     0.052380                       # mshr miss rate for WriteReq accesses
system.cpu1.dcache.WriteReq_avg_mshr_miss_latency::.cpu1.data 67825.534397                       # average WriteReq mshr miss latency
system.cpu1.dcache.WriteReq_avg_mshr_miss_latency::total 67825.534397                       # average WriteReq mshr miss latency
system.cpu1.dcache.LoadLockedReq_hits::.cpu1.data         6506                       # number of LoadLockedReq hits
system.cpu1.dcache.LoadLockedReq_hits::total         6506                       # number of LoadLockedReq hits
system.cpu1.dcache.LoadLockedReq_misses::.cpu1.data         1474                       # number of LoadLockedReq misses
system.cpu1.dcache.LoadLockedReq_misses::total         1474                       # number of LoadLockedReq misses
system.cpu1.dcache.LoadLockedReq_miss_latency::.cpu1.data     66901500                       # number of LoadLockedReq miss cycles
system.cpu1.dcache.LoadLockedReq_miss_latency::total     66901500                       # number of LoadLockedReq miss cycles
system.cpu1.dcache.LoadLockedReq_accesses::.cpu1.data         7980                       # number of LoadLockedReq accesses(hits+misses)
system.cpu1.dcache.LoadLockedReq_accesses::total         7980                       # number of LoadLockedReq accesses(hits+misses)
system.cpu1.dcache.LoadLockedReq_miss_rate::.cpu1.data     0.184712                       # miss rate for LoadLockedReq accesses
system.cpu1.dcache.LoadLockedReq_miss_rate::total     0.184712                       # miss rate for LoadLockedReq accesses
system.cpu1.dcache.LoadLockedReq_avg_miss_latency::.cpu1.data 45387.720488                       # average LoadLockedReq miss latency
system.cpu1.dcache.LoadLockedReq_avg_miss_latency::total 45387.720488                       # average LoadLockedReq miss latency
system.cpu1.dcache.LoadLockedReq_mshr_hits::.cpu1.data         1191                       # number of LoadLockedReq MSHR hits
system.cpu1.dcache.LoadLockedReq_mshr_hits::total         1191                       # number of LoadLockedReq MSHR hits
system.cpu1.dcache.LoadLockedReq_mshr_misses::.cpu1.data          283                       # number of LoadLockedReq MSHR misses
system.cpu1.dcache.LoadLockedReq_mshr_misses::total          283                       # number of LoadLockedReq MSHR misses
system.cpu1.dcache.LoadLockedReq_mshr_miss_latency::.cpu1.data      2768000                       # number of LoadLockedReq MSHR miss cycles
system.cpu1.dcache.LoadLockedReq_mshr_miss_latency::total      2768000                       # number of LoadLockedReq MSHR miss cycles
system.cpu1.dcache.LoadLockedReq_mshr_miss_rate::.cpu1.data     0.035464                       # mshr miss rate for LoadLockedReq accesses
system.cpu1.dcache.LoadLockedReq_mshr_miss_rate::total     0.035464                       # mshr miss rate for LoadLockedReq accesses
system.cpu1.dcache.LoadLockedReq_avg_mshr_miss_latency::.cpu1.data  9780.918728                       # average LoadLockedReq mshr miss latency
system.cpu1.dcache.LoadLockedReq_avg_mshr_miss_latency::total  9780.918728                       # average LoadLockedReq mshr miss latency
system.cpu1.dcache.StoreCondReq_hits::.cpu1.data         4236                       # number of StoreCondReq hits
system.cpu1.dcache.StoreCondReq_hits::total         4236                       # number of StoreCondReq hits
system.cpu1.dcache.StoreCondReq_misses::.cpu1.data         3046                       # number of StoreCondReq misses
system.cpu1.dcache.StoreCondReq_misses::total         3046                       # number of StoreCondReq misses
system.cpu1.dcache.StoreCondReq_miss_latency::.cpu1.data     17555500                       # number of StoreCondReq miss cycles
system.cpu1.dcache.StoreCondReq_miss_latency::total     17555500                       # number of StoreCondReq miss cycles
system.cpu1.dcache.StoreCondReq_accesses::.cpu1.data         7282                       # number of StoreCondReq accesses(hits+misses)
system.cpu1.dcache.StoreCondReq_accesses::total         7282                       # number of StoreCondReq accesses(hits+misses)
system.cpu1.dcache.StoreCondReq_miss_rate::.cpu1.data     0.418292                       # miss rate for StoreCondReq accesses
system.cpu1.dcache.StoreCondReq_miss_rate::total     0.418292                       # miss rate for StoreCondReq accesses
system.cpu1.dcache.StoreCondReq_avg_miss_latency::.cpu1.data  5763.460276                       # average StoreCondReq miss latency
system.cpu1.dcache.StoreCondReq_avg_miss_latency::total  5763.460276                       # average StoreCondReq miss latency
system.cpu1.dcache.StoreCondReq_mshr_misses::.cpu1.data         3046                       # number of StoreCondReq MSHR misses
system.cpu1.dcache.StoreCondReq_mshr_misses::total         3046                       # number of StoreCondReq MSHR misses
system.cpu1.dcache.StoreCondReq_mshr_miss_latency::.cpu1.data     14509500                       # number of StoreCondReq MSHR miss cycles
system.cpu1.dcache.StoreCondReq_mshr_miss_latency::total     14509500                       # number of StoreCondReq MSHR miss cycles
system.cpu1.dcache.StoreCondReq_mshr_miss_rate::.cpu1.data     0.418292                       # mshr miss rate for StoreCondReq accesses
system.cpu1.dcache.StoreCondReq_mshr_miss_rate::total     0.418292                       # mshr miss rate for StoreCondReq accesses
system.cpu1.dcache.StoreCondReq_avg_mshr_miss_latency::.cpu1.data  4763.460276                       # average StoreCondReq mshr miss latency
system.cpu1.dcache.StoreCondReq_avg_mshr_miss_latency::total  4763.460276                       # average StoreCondReq mshr miss latency
system.cpu1.dcache.SwapReq_hits::.cpu1.data         3980                       # number of SwapReq hits
system.cpu1.dcache.SwapReq_hits::total           3980                       # number of SwapReq hits
system.cpu1.dcache.SwapReq_misses::.cpu1.data       190938                       # number of SwapReq misses
system.cpu1.dcache.SwapReq_misses::total       190938                       # number of SwapReq misses
system.cpu1.dcache.SwapReq_miss_latency::.cpu1.data   4443373498                       # number of SwapReq miss cycles
system.cpu1.dcache.SwapReq_miss_latency::total   4443373498                       # number of SwapReq miss cycles
system.cpu1.dcache.SwapReq_accesses::.cpu1.data       194918                       # number of SwapReq accesses(hits+misses)
system.cpu1.dcache.SwapReq_accesses::total       194918                       # number of SwapReq accesses(hits+misses)
system.cpu1.dcache.SwapReq_miss_rate::.cpu1.data     0.979581                       # miss rate for SwapReq accesses
system.cpu1.dcache.SwapReq_miss_rate::total     0.979581                       # miss rate for SwapReq accesses
system.cpu1.dcache.SwapReq_avg_miss_latency::.cpu1.data 23271.289623                       # average SwapReq miss latency
system.cpu1.dcache.SwapReq_avg_miss_latency::total 23271.289623                       # average SwapReq miss latency
system.cpu1.dcache.SwapReq_mshr_misses::.cpu1.data       190938                       # number of SwapReq MSHR misses
system.cpu1.dcache.SwapReq_mshr_misses::total       190938                       # number of SwapReq MSHR misses
system.cpu1.dcache.SwapReq_mshr_miss_latency::.cpu1.data   4252435498                       # number of SwapReq MSHR miss cycles
system.cpu1.dcache.SwapReq_mshr_miss_latency::total   4252435498                       # number of SwapReq MSHR miss cycles
system.cpu1.dcache.SwapReq_mshr_miss_rate::.cpu1.data     0.979581                       # mshr miss rate for SwapReq accesses
system.cpu1.dcache.SwapReq_mshr_miss_rate::total     0.979581                       # mshr miss rate for SwapReq accesses
system.cpu1.dcache.SwapReq_avg_mshr_miss_latency::.cpu1.data 22271.289623                       # average SwapReq mshr miss latency
system.cpu1.dcache.SwapReq_avg_mshr_miss_latency::total 22271.289623                       # average SwapReq mshr miss latency
system.cpu1.dcache.tags.pwrStateResidencyTicks::UNDEFINED 1963228968500                       # Cumulative time (in ticks) in various power states
system.cpu1.dcache.tags.tagsinuse           31.928714                       # Cycle average of tags in use
system.cpu1.dcache.tags.total_refs          220356892                       # Total number of references to valid blocks.
system.cpu1.dcache.tags.sampled_refs         69564557                       # Sample count of references to valid blocks.
system.cpu1.dcache.tags.avg_refs             3.167660                       # Average number of references to valid blocks.
system.cpu1.dcache.tags.warmup_cycle                0                       # Cycle when the warmup percentage was hit.
system.cpu1.dcache.tags.occ_blocks::.cpu1.data    31.928714                       # Average occupied blocks per requestor
system.cpu1.dcache.tags.occ_percent::.cpu1.data     0.997772                       # Average percentage of cache occupancy
system.cpu1.dcache.tags.occ_percent::total     0.997772                       # Average percentage of cache occupancy
system.cpu1.dcache.tags.occ_task_id_blocks::1024           27                       # Occupied blocks per task id
system.cpu1.dcache.tags.age_task_id_blocks_1024::1           27                       # Occupied blocks per task id
system.cpu1.dcache.tags.occ_task_id_percent::1024     0.843750                       # Percentage of cache occupancy per task id
system.cpu1.dcache.tags.tag_accesses        679759563                       # Number of tag accesses
system.cpu1.dcache.tags.data_accesses       679759563                       # Number of data accesses
system.cpu_clk_domain.clock                       500                       # Clock period in ticks
system.tol2bus.pwrStateResidencyTicks::UNDEFINED 1963228968500                       # Cumulative time (in ticks) in various power states
system.tol2bus.trans_dist::ReadResp         136792503                       # Transaction distribution
system.tol2bus.trans_dist::WritebackDirty      9615525                       # Transaction distribution
system.tol2bus.trans_dist::WritebackClean    133747945                       # Transaction distribution
system.tol2bus.trans_dist::CleanEvict       350927147                       # Transaction distribution
system.tol2bus.trans_dist::HardPFReq        213854848                       # Transaction distribution
system.tol2bus.trans_dist::HardPFResp             148                       # Transaction distribution
system.tol2bus.trans_dist::UpgradeReq          335276                       # Transaction distribution
system.tol2bus.trans_dist::SCUpgradeReq          5553                       # Transaction distribution
system.tol2bus.trans_dist::UpgradeResp         340829                       # Transaction distribution
system.tol2bus.trans_dist::ReadExReq          2811962                       # Transaction distribution
system.tol2bus.trans_dist::ReadExResp         2811962                       # Transaction distribution
system.tol2bus.trans_dist::ReadCleanReq        190067                       # Transaction distribution
system.tol2bus.trans_dist::ReadSharedReq    136602436                       # Transaction distribution
system.tol2bus.trans_dist::InvalidateReq            9                       # Transaction distribution
system.tol2bus.trans_dist::InvalidateResp            9                       # Transaction distribution
system.tol2bus.pkt_count_system.cpu0.icache.mem_side::system.l2.cpu_side       455961                       # Packet count per connected master and slave (bytes)
system.tol2bus.pkt_count_system.cpu0.dcache.mem_side::system.l2.cpu_side    209253906                       # Packet count per connected master and slave (bytes)
system.tol2bus.pkt_count_system.cpu1.icache.mem_side::system.l2.cpu_side       114240                       # Packet count per connected master and slave (bytes)
system.tol2bus.pkt_count_system.cpu1.dcache.mem_side::system.l2.cpu_side    208393114                       # Packet count per connected master and slave (bytes)
system.tol2bus.pkt_count::total             418217221                       # Packet count per connected master and slave (bytes)
system.tol2bus.pkt_size_system.cpu0.icache.mem_side::system.l2.cpu_side     19454336                       # Cumulative packet size per connected master and slave (bytes)
system.tol2bus.pkt_size_system.cpu0.dcache.mem_side::system.l2.cpu_side   8907592512                       # Cumulative packet size per connected master and slave (bytes)
system.tol2bus.pkt_size_system.cpu1.icache.mem_side::system.l2.cpu_side      4874240                       # Cumulative packet size per connected master and slave (bytes)
system.tol2bus.pkt_size_system.cpu1.dcache.mem_side::system.l2.cpu_side   8870858624                       # Cumulative packet size per connected master and slave (bytes)
system.tol2bus.pkt_size::total            17802779712                       # Cumulative packet size per connected master and slave (bytes)
system.tol2bus.snoops                       569819146                       # Total snoops (count)
system.tol2bus.snoopTraffic                 307187072                       # Total snoop traffic (bytes)
system.tol2bus.snoop_fanout::samples        709158707                       # Request fanout histogram
system.tol2bus.snoop_fanout::mean            0.188368                       # Request fanout histogram
system.tol2bus.snoop_fanout::stdev           0.406892                       # Request fanout histogram
system.tol2bus.snoop_fanout::underflows             0      0.00%      0.00% # Request fanout histogram
system.tol2bus.snoop_fanout::0              580070014     81.80%     81.80% # Request fanout histogram
system.tol2bus.snoop_fanout::1              124594294     17.57%     99.37% # Request fanout histogram
system.tol2bus.snoop_fanout::2                4494399      0.63%    100.00% # Request fanout histogram
system.tol2bus.snoop_fanout::3                      0      0.00%    100.00% # Request fanout histogram
system.tol2bus.snoop_fanout::4                      0      0.00%    100.00% # Request fanout histogram
system.tol2bus.snoop_fanout::5                      0      0.00%    100.00% # Request fanout histogram
system.tol2bus.snoop_fanout::6                      0      0.00%    100.00% # Request fanout histogram
system.tol2bus.snoop_fanout::7                      0      0.00%    100.00% # Request fanout histogram
system.tol2bus.snoop_fanout::8                      0      0.00%    100.00% # Request fanout histogram
system.tol2bus.snoop_fanout::overflows              0      0.00%    100.00% # Request fanout histogram
system.tol2bus.snoop_fanout::min_value              0                       # Request fanout histogram
system.tol2bus.snoop_fanout::max_value              2                       # Request fanout histogram
system.tol2bus.snoop_fanout::total          709158707                       # Request fanout histogram
system.tol2bus.reqLayer0.occupancy       278845781349                       # Layer occupancy (ticks)
system.tol2bus.reqLayer0.utilization             14.2                       # Layer utilization (%)
system.tol2bus.respLayer1.occupancy      105065073183                       # Layer occupancy (ticks)
system.tol2bus.respLayer1.utilization             5.4                       # Layer utilization (%)
system.tol2bus.respLayer0.occupancy         228340279                       # Layer occupancy (ticks)
system.tol2bus.respLayer0.utilization             0.0                       # Layer utilization (%)
system.tol2bus.respLayer3.occupancy      104638900995                       # Layer occupancy (ticks)
system.tol2bus.respLayer3.utilization             5.3                       # Layer utilization (%)
system.tol2bus.respLayer2.occupancy          57285668                       # Layer occupancy (ticks)
system.tol2bus.respLayer2.utilization             0.0                       # Layer utilization (%)
system.tol2bus.snoopLayer0.occupancy           222071                       # Layer occupancy (ticks)
system.tol2bus.snoopLayer0.utilization            0.0                       # Layer utilization (%)

---------- End Simulation Statistics   ----------
