Redirecting stdout to /vol1/msoyturk/gem5/results/cc/dblp.el/prefetch_SignaturePathPrefetcher_SecondChanceRP/output.txt
Redirecting stderr to /vol1/msoyturk/gem5/results/cc/dblp.el/prefetch_SignaturePathPrefetcher_SecondChanceRP/error.txt
gem5 Simulator System.  http://gem5.org
gem5 is copyrighted software; use the --copyright option for details.

gem5 compiled Apr 26 2020 13:32:47
gem5 started May  3 2020 03:34:21
gem5 executing on draco, pid 15996
command line: /vol1/msoyturk/gem5/build/RISCV/gem5.fast -re --outdir=/vol1/msoyturk/gem5/results/cc/dblp.el/prefetch_SignaturePathPrefetcher_SecondChanceRP --stdout-file=output.txt --stderr-file=error.txt /vol1/msoyturk/gem5/configs/example/my_se.py -c /vol1/msoyturk/gem5/gapbs/cc -o '-f /vol1/msoyturk/gem5/gapbs/test/graphs/dblp.el' --caches --l1d_size=2kB --l1i_size=2kB --cpu-type=DerivO3CPU -n 4 --mem-size=512MB --l2cache --l2_size=4kB --l2-hwp-type=SignaturePathPrefetcher --l2-replacement-policy=SecondChanceRP --l1i_mshrs=4 --l1d_mshrs=4 --l2_mshrs=20 --l1i_write_buffers=8 --l1d_write_buffers=8 --l2_write_buffers=8

info: Standard input is not a terminal, disabling listeners.
Warning: l2-hwp-type is set ( SignaturePathPrefetcher ), but the current l2 has a default Hardware Prefetcher of type <class 'm5.params.NullSimObject'> , using the specified by the flag option.
Global frequency set at 1000000000000 ticks per second
**** REAL SIMULATION ****
Read Time:           0.99000
Build Time:          0.19273
Graph has 425957 nodes and 1049866 directed edges for degree: 2
Skipping largest intermediate component (ID: 0, approx. 31% of the graph)
Trial Time:          0.06652
Skipping largest intermediate component (ID: 0, approx. 31% of the graph)
Trial Time:          0.06658
Skipping largest intermediate component (ID: 0, approx. 31% of the graph)
Trial Time:          0.06658
Skipping largest intermediate component (ID: 0, approx. 31% of the graph)
Trial Time:          0.06673
Skipping largest intermediate component (ID: 0, approx. 31% of the graph)
Trial Time:          0.06706
Skipping largest intermediate component (ID: 0, approx. 31% of the graph)
Trial Time:          0.06696
Skipping largest intermediate component (ID: 0, approx. 31% of the graph)
Trial Time:          0.06688
Skipping largest intermediate component (ID: 0, approx. 31% of the graph)
Trial Time:          0.06674
Skipping largest intermediate component (ID: 0, approx. 31% of the graph)
Trial Time:          0.06704
Skipping largest intermediate component (ID: 0, approx. 31% of the graph)
Trial Time:          0.06682
Skipping largest intermediate component (ID: 0, approx. 31% of the graph)
Trial Time:          0.06674
Skipping largest intermediate component (ID: 0, approx. 31% of the graph)
Trial Time:          0.06683
Skipping largest intermediate component (ID: 0, approx. 31% of the graph)
Trial Time:          0.06683
Skipping largest intermediate component (ID: 0, approx. 31% of the graph)
Trial Time:          0.06703
Skipping largest intermediate component (ID: 0, approx. 31% of the graph)
Trial Time:          0.06665
Skipping largest intermediate component (ID: 0, approx. 31% of the graph)
Trial Time:          0.06681
Average Time:        0.06680
Exiting @ tick 2338119539500 because exiting with last active thread context
