
---------- Begin Simulation Statistics ----------
final_tick                               1167242335000                       # Number of ticks from beginning of simulation (restored from checkpoints and never reset)
host_inst_rate                                  78612                       # Simulator instruction rate (inst/s)
host_mem_usage                                 740328                       # Number of bytes of host memory used
host_op_rate                                    78842                       # Simulator op (including micro ops) rate (op/s)
host_seconds                                 18330.57                       # Real time elapsed on the host
host_tick_rate                               63677352                       # Simulator tick rate (ticks/s)
sim_freq                                 1000000000000                       # Frequency of simulated ticks
sim_insts                                  1441011696                       # Number of instructions simulated
sim_ops                                    1445216701                       # Number of ops (including micro ops) simulated
sim_seconds                                  1.167242                       # Number of seconds simulated
sim_ticks                                1167242335000                       # Number of ticks simulated
system.cpu0.branchPred.BTBCorrect                   0                       # Number of correct BTB predictions (this stat may not work properly.
system.cpu0.branchPred.BTBHitPct            87.712046                       # BTB Hit Percentage
system.cpu0.branchPred.BTBHits              167457784                       # Number of BTB hits
system.cpu0.branchPred.BTBLookups           190917658                       # Number of BTB lookups
system.cpu0.branchPred.RASInCorrect                 0                       # Number of incorrect RAS predictions.
system.cpu0.branchPred.condIncorrect         14818605                       # Number of conditional branches incorrect
system.cpu0.branchPred.condPredicted        258410566                       # Number of conditional branches predicted
system.cpu0.branchPred.indirectHits          20588270                       # Number of indirect target hits.
system.cpu0.branchPred.indirectLookups       21279527                       # Number of indirect predictor lookups.
system.cpu0.branchPred.indirectMisses          691257                       # Number of indirect misses.
system.cpu0.branchPred.lookups              327118694                       # Number of BP lookups
system.cpu0.branchPred.usedRAS                      0                       # Number of times the RAS was used to get a target.
system.cpu0.branchPredindirectMispredicted      2149964                       # Number of mispredicted indirect branches.
system.cpu0.commit.amos                       1050455                       # Number of atomic instructions committed
system.cpu0.commit.branchMispredicts          9066266                       # The number of times a branch was mispredicted
system.cpu0.commit.branches                 313654031                       # Number of branches committed
system.cpu0.commit.bw_lim_events             30334824                       # number cycles where commit BW limit reached
system.cpu0.commit.commitNonSpecStalls        3160611                       # The number of times commit has been forced to stall to communicate backwards
system.cpu0.commit.commitSquashedInsts       43900095                       # The number of squashed insts skipped by commit
system.cpu0.commit.committedInsts          1250508144                       # Number of instructions committed
system.cpu0.commit.committedOps            1251561889                       # Number of ops (including micro ops) committed
system.cpu0.commit.committed_per_cycle::samples   2165780515                       # Number of insts commited each cycle
system.cpu0.commit.committed_per_cycle::mean     0.577880                       # Number of insts commited each cycle
system.cpu0.commit.committed_per_cycle::stdev     1.297749                       # Number of insts commited each cycle
system.cpu0.commit.committed_per_cycle::underflows            0      0.00%      0.00% # Number of insts commited each cycle
system.cpu0.commit.committed_per_cycle::0   1539964219     71.10%     71.10% # Number of insts commited each cycle
system.cpu0.commit.committed_per_cycle::1    371313627     17.14%     88.25% # Number of insts commited each cycle
system.cpu0.commit.committed_per_cycle::2     98074188      4.53%     92.78% # Number of insts commited each cycle
system.cpu0.commit.committed_per_cycle::3     89825810      4.15%     96.92% # Number of insts commited each cycle
system.cpu0.commit.committed_per_cycle::4     22335668      1.03%     97.96% # Number of insts commited each cycle
system.cpu0.commit.committed_per_cycle::5      5624459      0.26%     98.22% # Number of insts commited each cycle
system.cpu0.commit.committed_per_cycle::6      3675143      0.17%     98.39% # Number of insts commited each cycle
system.cpu0.commit.committed_per_cycle::7      4632577      0.21%     98.60% # Number of insts commited each cycle
system.cpu0.commit.committed_per_cycle::8     30334824      1.40%    100.00% # Number of insts commited each cycle
system.cpu0.commit.committed_per_cycle::overflows            0      0.00%    100.00% # Number of insts commited each cycle
system.cpu0.commit.committed_per_cycle::min_value            0                       # Number of insts commited each cycle
system.cpu0.commit.committed_per_cycle::max_value            8                       # Number of insts commited each cycle
system.cpu0.commit.committed_per_cycle::total   2165780515                       # Number of insts commited each cycle
system.cpu0.commit.fp_insts                        50                       # Number of committed floating point instructions.
system.cpu0.commit.function_calls            24112873                       # Number of function calls committed.
system.cpu0.commit.int_insts               1209808182                       # Number of committed integer instructions.
system.cpu0.commit.loads                    388697509                       # Number of loads committed
system.cpu0.commit.membars                    2104060                       # Number of memory barriers committed
system.cpu0.commit.op_class_0::No_OpClass      2104066      0.17%      0.17% # Class of committed instruction
system.cpu0.commit.op_class_0::IntAlu       699522753     55.89%     56.06% # Class of committed instruction
system.cpu0.commit.op_class_0::IntMult       11831886      0.95%     57.01% # Class of committed instruction
system.cpu0.commit.op_class_0::IntDiv         2099835      0.17%     57.17% # Class of committed instruction
system.cpu0.commit.op_class_0::FloatAdd             0      0.00%     57.17% # Class of committed instruction
system.cpu0.commit.op_class_0::FloatCmp             4      0.00%     57.17% # Class of committed instruction
system.cpu0.commit.op_class_0::FloatCvt            12      0.00%     57.17% # Class of committed instruction
system.cpu0.commit.op_class_0::FloatMult            0      0.00%     57.17% # Class of committed instruction
system.cpu0.commit.op_class_0::FloatMultAcc            0      0.00%     57.17% # Class of committed instruction
system.cpu0.commit.op_class_0::FloatDiv             2      0.00%     57.17% # Class of committed instruction
system.cpu0.commit.op_class_0::FloatMisc            4      0.00%     57.17% # Class of committed instruction
system.cpu0.commit.op_class_0::FloatSqrt            0      0.00%     57.17% # Class of committed instruction
system.cpu0.commit.op_class_0::SimdAdd              0      0.00%     57.17% # Class of committed instruction
system.cpu0.commit.op_class_0::SimdAddAcc            0      0.00%     57.17% # Class of committed instruction
system.cpu0.commit.op_class_0::SimdAlu              0      0.00%     57.17% # Class of committed instruction
system.cpu0.commit.op_class_0::SimdCmp              0      0.00%     57.17% # Class of committed instruction
system.cpu0.commit.op_class_0::SimdCvt              0      0.00%     57.17% # Class of committed instruction
system.cpu0.commit.op_class_0::SimdMisc             0      0.00%     57.17% # Class of committed instruction
system.cpu0.commit.op_class_0::SimdMult             0      0.00%     57.17% # Class of committed instruction
system.cpu0.commit.op_class_0::SimdMultAcc            0      0.00%     57.17% # Class of committed instruction
system.cpu0.commit.op_class_0::SimdShift            0      0.00%     57.17% # Class of committed instruction
system.cpu0.commit.op_class_0::SimdShiftAcc            0      0.00%     57.17% # Class of committed instruction
system.cpu0.commit.op_class_0::SimdDiv              0      0.00%     57.17% # Class of committed instruction
system.cpu0.commit.op_class_0::SimdSqrt             0      0.00%     57.17% # Class of committed instruction
system.cpu0.commit.op_class_0::SimdFloatAdd            0      0.00%     57.17% # Class of committed instruction
system.cpu0.commit.op_class_0::SimdFloatAlu            0      0.00%     57.17% # Class of committed instruction
system.cpu0.commit.op_class_0::SimdFloatCmp            0      0.00%     57.17% # Class of committed instruction
system.cpu0.commit.op_class_0::SimdFloatCvt            0      0.00%     57.17% # Class of committed instruction
system.cpu0.commit.op_class_0::SimdFloatDiv            0      0.00%     57.17% # Class of committed instruction
system.cpu0.commit.op_class_0::SimdFloatMisc            0      0.00%     57.17% # Class of committed instruction
system.cpu0.commit.op_class_0::SimdFloatMult            0      0.00%     57.17% # Class of committed instruction
system.cpu0.commit.op_class_0::SimdFloatMultAcc            0      0.00%     57.17% # Class of committed instruction
system.cpu0.commit.op_class_0::SimdFloatSqrt            0      0.00%     57.17% # Class of committed instruction
system.cpu0.commit.op_class_0::SimdReduceAdd            0      0.00%     57.17% # Class of committed instruction
system.cpu0.commit.op_class_0::SimdReduceAlu            0      0.00%     57.17% # Class of committed instruction
system.cpu0.commit.op_class_0::SimdReduceCmp            0      0.00%     57.17% # Class of committed instruction
system.cpu0.commit.op_class_0::SimdFloatReduceAdd            0      0.00%     57.17% # Class of committed instruction
system.cpu0.commit.op_class_0::SimdFloatReduceCmp            0      0.00%     57.17% # Class of committed instruction
system.cpu0.commit.op_class_0::SimdAes              0      0.00%     57.17% # Class of committed instruction
system.cpu0.commit.op_class_0::SimdAesMix            0      0.00%     57.17% # Class of committed instruction
system.cpu0.commit.op_class_0::SimdSha1Hash            0      0.00%     57.17% # Class of committed instruction
system.cpu0.commit.op_class_0::SimdSha1Hash2            0      0.00%     57.17% # Class of committed instruction
system.cpu0.commit.op_class_0::SimdSha256Hash            0      0.00%     57.17% # Class of committed instruction
system.cpu0.commit.op_class_0::SimdSha256Hash2            0      0.00%     57.17% # Class of committed instruction
system.cpu0.commit.op_class_0::SimdShaSigma2            0      0.00%     57.17% # Class of committed instruction
system.cpu0.commit.op_class_0::SimdShaSigma3            0      0.00%     57.17% # Class of committed instruction
system.cpu0.commit.op_class_0::SimdPredAlu            0      0.00%     57.17% # Class of committed instruction
system.cpu0.commit.op_class_0::MemRead      389747956     31.14%     88.31% # Class of committed instruction
system.cpu0.commit.op_class_0::MemWrite     146255343     11.69%    100.00% # Class of committed instruction
system.cpu0.commit.op_class_0::FloatMemRead            8      0.00%    100.00% # Class of committed instruction
system.cpu0.commit.op_class_0::FloatMemWrite           20      0.00%    100.00% # Class of committed instruction
system.cpu0.commit.op_class_0::IprAccess            0      0.00%    100.00% # Class of committed instruction
system.cpu0.commit.op_class_0::InstPrefetch            0      0.00%    100.00% # Class of committed instruction
system.cpu0.commit.op_class_0::total       1251561889                       # Class of committed instruction
system.cpu0.commit.refs                     536003327                       # Number of memory references committed
system.cpu0.commit.swp_count                        0                       # Number of s/w prefetches committed
system.cpu0.commit.vec_insts                        0                       # Number of committed Vector instructions.
system.cpu0.committedInsts                 1250508144                       # Number of Instructions Simulated
system.cpu0.committedOps                   1251561889                       # Number of Ops (including micro ops) Simulated
system.cpu0.cpi                              1.858840                       # CPI: Cycles Per Instruction
system.cpu0.cpi_total                        1.858840                       # CPI: Total CPI of All Threads
system.cpu0.decode.BlockedCycles            266985445                       # Number of cycles decode is blocked
system.cpu0.decode.BranchMispred              5777461                       # Number of times decode detected a branch misprediction
system.cpu0.decode.BranchResolved           166993443                       # Number of times decode resolved a branch
system.cpu0.decode.DecodedInsts            1318206344                       # Number of instructions handled by decode
system.cpu0.decode.IdleCycles               973068466                       # Number of cycles decode is idle
system.cpu0.decode.RunCycles                924761206                       # Number of cycles decode is running
system.cpu0.decode.SquashCycles               9078923                       # Number of cycles decode is squashing
system.cpu0.decode.SquashedInsts             12886727                       # Number of squashed instructions handled by decode
system.cpu0.decode.UnblockCycles              3457041                       # Number of cycles decode is unblocking
system.cpu0.dtb.accesses                            0                       # DTB accesses
system.cpu0.dtb.hits                                0                       # DTB hits
system.cpu0.dtb.misses                              0                       # DTB misses
system.cpu0.dtb.read_accesses                       0                       # DTB read accesses
system.cpu0.dtb.read_hits                           0                       # DTB read hits
system.cpu0.dtb.read_misses                         0                       # DTB read misses
system.cpu0.dtb.write_accesses                      0                       # DTB write accesses
system.cpu0.dtb.write_hits                          0                       # DTB write hits
system.cpu0.dtb.write_misses                        0                       # DTB write misses
system.cpu0.fetch.Branches                  327118694                       # Number of branches that fetch encountered
system.cpu0.fetch.CacheLines                242407343                       # Number of cache lines fetched
system.cpu0.fetch.Cycles                   1215998965                       # Number of cycles fetch has run and was not squashing or blocked
system.cpu0.fetch.IcacheSquashes              4843789                       # Number of outstanding Icache misses that were squashed
system.cpu0.fetch.IcacheWaitRetryStallCycles          180                       # Number of stall cycles due to full MSHR
system.cpu0.fetch.Insts                    1339182704                       # Number of instructions fetch has processed
system.cpu0.fetch.MiscStallCycles                  47                       # Number of cycles fetch has spent waiting on interrupts, or bad addresses, or out of MSHRs
system.cpu0.fetch.PendingTrapStallCycles          149                       # Number of stall cycles due to pending traps
system.cpu0.fetch.SquashCycles               29662570                       # Number of cycles fetch has spent squashing
system.cpu0.fetch.branchRate                 0.140727                       # Number of branch fetches per cycle
system.cpu0.fetch.icacheStallCycles         946520455                       # Number of cycles fetch is stalled on an Icache miss
system.cpu0.fetch.predictedBranches         188046054                       # Number of branches that fetch has predicted taken
system.cpu0.fetch.rate                       0.576118                       # Number of inst fetches per cycle
system.cpu0.fetch.rateDist::samples        2177351081                       # Number of instructions fetched each cycle (Total)
system.cpu0.fetch.rateDist::mean             0.615536                       # Number of instructions fetched each cycle (Total)
system.cpu0.fetch.rateDist::stdev            0.888517                       # Number of instructions fetched each cycle (Total)
system.cpu0.fetch.rateDist::underflows              0      0.00%      0.00% # Number of instructions fetched each cycle (Total)
system.cpu0.fetch.rateDist::0              1225502858     56.28%     56.28% # Number of instructions fetched each cycle (Total)
system.cpu0.fetch.rateDist::1               714061817     32.79%     89.08% # Number of instructions fetched each cycle (Total)
system.cpu0.fetch.rateDist::2               121849280      5.60%     94.68% # Number of instructions fetched each cycle (Total)
system.cpu0.fetch.rateDist::3                96755588      4.44%     99.12% # Number of instructions fetched each cycle (Total)
system.cpu0.fetch.rateDist::4                12173421      0.56%     99.68% # Number of instructions fetched each cycle (Total)
system.cpu0.fetch.rateDist::5                 2744746      0.13%     99.80% # Number of instructions fetched each cycle (Total)
system.cpu0.fetch.rateDist::6                   55417      0.00%     99.81% # Number of instructions fetched each cycle (Total)
system.cpu0.fetch.rateDist::7                 4203769      0.19%    100.00% # Number of instructions fetched each cycle (Total)
system.cpu0.fetch.rateDist::8                    4185      0.00%    100.00% # Number of instructions fetched each cycle (Total)
system.cpu0.fetch.rateDist::overflows               0      0.00%    100.00% # Number of instructions fetched each cycle (Total)
system.cpu0.fetch.rateDist::min_value               0                       # Number of instructions fetched each cycle (Total)
system.cpu0.fetch.rateDist::max_value               8                       # Number of instructions fetched each cycle (Total)
system.cpu0.fetch.rateDist::total          2177351081                       # Number of instructions fetched each cycle (Total)
system.cpu0.fp_regfile_reads                       44                       # number of floating regfile reads
system.cpu0.fp_regfile_writes                      24                       # number of floating regfile writes
system.cpu0.idleCycles                      147144066                       # Total number of cycles that the CPU has spent unscheduled due to idling
system.cpu0.iew.branchMispredicts             9128275                       # Number of branch mispredicts detected at execute
system.cpu0.iew.exec_branches               318862663                       # Number of branches executed
system.cpu0.iew.exec_nop                            0                       # number of nop insts executed
system.cpu0.iew.exec_rate                    0.552124                       # Inst execution rate
system.cpu0.iew.exec_refs                   555231370                       # number of memory reference insts executed
system.cpu0.iew.exec_stores                 149141833                       # Number of stores executed
system.cpu0.iew.exec_swp                            0                       # number of swp insts executed
system.cpu0.iew.iewBlockCycles              213473836                       # Number of cycles IEW is blocking
system.cpu0.iew.iewDispLoadInsts            408561435                       # Number of dispatched load instructions
system.cpu0.iew.iewDispNonSpecInsts           1056791                       # Number of dispatched non-speculative instructions
system.cpu0.iew.iewDispSquashedInsts          5095709                       # Number of squashed instructions skipped by dispatch
system.cpu0.iew.iewDispStoreInsts           149814221                       # Number of dispatched store instructions
system.cpu0.iew.iewDispatchedInsts         1295426711                       # Number of instructions dispatched to IQ
system.cpu0.iew.iewExecLoadInsts            406089537                       # Number of load instructions executed
system.cpu0.iew.iewExecSquashedInsts          7229808                       # Number of squashed instructions skipped in execute
system.cpu0.iew.iewExecutedInsts           1283408983                       # Number of executed instructions
system.cpu0.iew.iewIQFullEvents                924469                       # Number of times the IQ has become full, causing a stall
system.cpu0.iew.iewIdleCycles                       0                       # Number of cycles IEW is idle
system.cpu0.iew.iewLSQFullEvents              9012777                       # Number of times the LSQ has become full, causing a stall
system.cpu0.iew.iewSquashCycles               9078923                       # Number of cycles IEW is squashing
system.cpu0.iew.iewUnblockCycles             11171196                       # Number of cycles IEW is unblocking
system.cpu0.iew.lsq.thread0.blockedLoads            0                       # Number of blocked loads due to partial load-store forwarding
system.cpu0.iew.lsq.thread0.cacheBlocked       158057                       # Number of times an access to memory failed due to the cache being blocked
system.cpu0.iew.lsq.thread0.forwLoads        19645236                       # Number of loads that had data forwarded from stores
system.cpu0.iew.lsq.thread0.ignoredResponses        15770                       # Number of memory responses ignored because the instruction is squashed
system.cpu0.iew.lsq.thread0.invAddrLoads            0                       # Number of loads ignored due to an invalid address
system.cpu0.iew.lsq.thread0.invAddrSwpfs            0                       # Number of software prefetches ignored due to an invalid address
system.cpu0.iew.lsq.thread0.memOrderViolation        11489                       # Number of memory ordering violations
system.cpu0.iew.lsq.thread0.rescheduledLoads      4514488                       # Number of loads that were rescheduled
system.cpu0.iew.lsq.thread0.squashedLoads     19863926                       # Number of loads squashed
system.cpu0.iew.lsq.thread0.squashedStores      2508403                       # Number of stores squashed
system.cpu0.iew.memOrderViolationEvents         11489                       # Number of memory order violations
system.cpu0.iew.predictedNotTakenIncorrect       406113                       # Number of branches that were predicted not taken incorrectly
system.cpu0.iew.predictedTakenIncorrect       8722162                       # Number of branches that were predicted taken incorrectly
system.cpu0.iew.wb_consumers                534137998                       # num instructions consuming a value
system.cpu0.iew.wb_count                   1274802018                       # cumulative count of insts written-back
system.cpu0.iew.wb_fanout                    0.900813                       # average fanout of values written-back
system.cpu0.iew.wb_producers                481158228                       # num instructions producing a value
system.cpu0.iew.wb_rate                      0.548421                       # insts written-back per cycle
system.cpu0.iew.wb_sent                    1274859480                       # cumulative count of insts sent to commit
system.cpu0.int_regfile_reads              1573956260                       # number of integer regfile reads
system.cpu0.int_regfile_writes              816959826                       # number of integer regfile writes
system.cpu0.ipc                              0.537970                       # IPC: Instructions Per Cycle
system.cpu0.ipc_total                        0.537970                       # IPC: Total IPC of All Threads
system.cpu0.iq.FU_type_0::No_OpClass          2106131      0.16%      0.16% # Type of FU issued
system.cpu0.iq.FU_type_0::IntAlu            714939638     55.39%     55.56% # Type of FU issued
system.cpu0.iq.FU_type_0::IntMult            11833841      0.92%     56.47% # Type of FU issued
system.cpu0.iq.FU_type_0::IntDiv              2100405      0.16%     56.64% # Type of FU issued
system.cpu0.iq.FU_type_0::FloatAdd                  0      0.00%     56.64% # Type of FU issued
system.cpu0.iq.FU_type_0::FloatCmp                  4      0.00%     56.64% # Type of FU issued
system.cpu0.iq.FU_type_0::FloatCvt                 12      0.00%     56.64% # Type of FU issued
system.cpu0.iq.FU_type_0::FloatMult                 0      0.00%     56.64% # Type of FU issued
system.cpu0.iq.FU_type_0::FloatMultAcc              0      0.00%     56.64% # Type of FU issued
system.cpu0.iq.FU_type_0::FloatDiv                  2      0.00%     56.64% # Type of FU issued
system.cpu0.iq.FU_type_0::FloatMisc                 4      0.00%     56.64% # Type of FU issued
system.cpu0.iq.FU_type_0::FloatSqrt                 0      0.00%     56.64% # Type of FU issued
system.cpu0.iq.FU_type_0::SimdAdd                   0      0.00%     56.64% # Type of FU issued
system.cpu0.iq.FU_type_0::SimdAddAcc                0      0.00%     56.64% # Type of FU issued
system.cpu0.iq.FU_type_0::SimdAlu                   0      0.00%     56.64% # Type of FU issued
system.cpu0.iq.FU_type_0::SimdCmp                   0      0.00%     56.64% # Type of FU issued
system.cpu0.iq.FU_type_0::SimdCvt                   0      0.00%     56.64% # Type of FU issued
system.cpu0.iq.FU_type_0::SimdMisc                  0      0.00%     56.64% # Type of FU issued
system.cpu0.iq.FU_type_0::SimdMult                  0      0.00%     56.64% # Type of FU issued
system.cpu0.iq.FU_type_0::SimdMultAcc               0      0.00%     56.64% # Type of FU issued
system.cpu0.iq.FU_type_0::SimdShift                 0      0.00%     56.64% # Type of FU issued
system.cpu0.iq.FU_type_0::SimdShiftAcc              0      0.00%     56.64% # Type of FU issued
system.cpu0.iq.FU_type_0::SimdDiv                   0      0.00%     56.64% # Type of FU issued
system.cpu0.iq.FU_type_0::SimdSqrt                  0      0.00%     56.64% # Type of FU issued
system.cpu0.iq.FU_type_0::SimdFloatAdd              0      0.00%     56.64% # Type of FU issued
system.cpu0.iq.FU_type_0::SimdFloatAlu              0      0.00%     56.64% # Type of FU issued
system.cpu0.iq.FU_type_0::SimdFloatCmp              0      0.00%     56.64% # Type of FU issued
system.cpu0.iq.FU_type_0::SimdFloatCvt              0      0.00%     56.64% # Type of FU issued
system.cpu0.iq.FU_type_0::SimdFloatDiv              0      0.00%     56.64% # Type of FU issued
system.cpu0.iq.FU_type_0::SimdFloatMisc             0      0.00%     56.64% # Type of FU issued
system.cpu0.iq.FU_type_0::SimdFloatMult             0      0.00%     56.64% # Type of FU issued
system.cpu0.iq.FU_type_0::SimdFloatMultAcc            0      0.00%     56.64% # Type of FU issued
system.cpu0.iq.FU_type_0::SimdFloatSqrt             0      0.00%     56.64% # Type of FU issued
system.cpu0.iq.FU_type_0::SimdReduceAdd             0      0.00%     56.64% # Type of FU issued
system.cpu0.iq.FU_type_0::SimdReduceAlu             0      0.00%     56.64% # Type of FU issued
system.cpu0.iq.FU_type_0::SimdReduceCmp             0      0.00%     56.64% # Type of FU issued
system.cpu0.iq.FU_type_0::SimdFloatReduceAdd            0      0.00%     56.64% # Type of FU issued
system.cpu0.iq.FU_type_0::SimdFloatReduceCmp            0      0.00%     56.64% # Type of FU issued
system.cpu0.iq.FU_type_0::SimdAes                   0      0.00%     56.64% # Type of FU issued
system.cpu0.iq.FU_type_0::SimdAesMix                0      0.00%     56.64% # Type of FU issued
system.cpu0.iq.FU_type_0::SimdSha1Hash              0      0.00%     56.64% # Type of FU issued
system.cpu0.iq.FU_type_0::SimdSha1Hash2             0      0.00%     56.64% # Type of FU issued
system.cpu0.iq.FU_type_0::SimdSha256Hash            0      0.00%     56.64% # Type of FU issued
system.cpu0.iq.FU_type_0::SimdSha256Hash2            0      0.00%     56.64% # Type of FU issued
system.cpu0.iq.FU_type_0::SimdShaSigma2             0      0.00%     56.64% # Type of FU issued
system.cpu0.iq.FU_type_0::SimdShaSigma3             0      0.00%     56.64% # Type of FU issued
system.cpu0.iq.FU_type_0::SimdPredAlu               0      0.00%     56.64% # Type of FU issued
system.cpu0.iq.FU_type_0::MemRead           411183887     31.86%     88.50% # Type of FU issued
system.cpu0.iq.FU_type_0::MemWrite          148474838     11.50%    100.00% # Type of FU issued
system.cpu0.iq.FU_type_0::FloatMemRead             10      0.00%    100.00% # Type of FU issued
system.cpu0.iq.FU_type_0::FloatMemWrite            20      0.00%    100.00% # Type of FU issued
system.cpu0.iq.FU_type_0::IprAccess                 0      0.00%    100.00% # Type of FU issued
system.cpu0.iq.FU_type_0::InstPrefetch              0      0.00%    100.00% # Type of FU issued
system.cpu0.iq.FU_type_0::total            1290638792                       # Type of FU issued
system.cpu0.iq.fp_alu_accesses                     54                       # Number of floating point alu accesses
system.cpu0.iq.fp_inst_queue_reads                106                       # Number of floating instruction queue reads
system.cpu0.iq.fp_inst_queue_wakeup_accesses           52                       # Number of floating instruction queue wakeup accesses
system.cpu0.iq.fp_inst_queue_writes                54                       # Number of floating instruction queue writes
system.cpu0.iq.fu_busy_cnt                    1642868                       # FU busy when requested
system.cpu0.iq.fu_busy_rate                  0.001273                       # FU busy rate (busy events/executed inst)
system.cpu0.iq.fu_full::No_OpClass                  0      0.00%      0.00% # attempts to use FU when none available
system.cpu0.iq.fu_full::IntAlu                 257223     15.66%     15.66% # attempts to use FU when none available
system.cpu0.iq.fu_full::IntMult                     0      0.00%     15.66% # attempts to use FU when none available
system.cpu0.iq.fu_full::IntDiv                      0      0.00%     15.66% # attempts to use FU when none available
system.cpu0.iq.fu_full::FloatAdd                    0      0.00%     15.66% # attempts to use FU when none available
system.cpu0.iq.fu_full::FloatCmp                    0      0.00%     15.66% # attempts to use FU when none available
system.cpu0.iq.fu_full::FloatCvt                    0      0.00%     15.66% # attempts to use FU when none available
system.cpu0.iq.fu_full::FloatMult                   0      0.00%     15.66% # attempts to use FU when none available
system.cpu0.iq.fu_full::FloatMultAcc                0      0.00%     15.66% # attempts to use FU when none available
system.cpu0.iq.fu_full::FloatDiv                    0      0.00%     15.66% # attempts to use FU when none available
system.cpu0.iq.fu_full::FloatMisc                   0      0.00%     15.66% # attempts to use FU when none available
system.cpu0.iq.fu_full::FloatSqrt                   0      0.00%     15.66% # attempts to use FU when none available
system.cpu0.iq.fu_full::SimdAdd                     0      0.00%     15.66% # attempts to use FU when none available
system.cpu0.iq.fu_full::SimdAddAcc                  0      0.00%     15.66% # attempts to use FU when none available
system.cpu0.iq.fu_full::SimdAlu                     0      0.00%     15.66% # attempts to use FU when none available
system.cpu0.iq.fu_full::SimdCmp                     0      0.00%     15.66% # attempts to use FU when none available
system.cpu0.iq.fu_full::SimdCvt                     0      0.00%     15.66% # attempts to use FU when none available
system.cpu0.iq.fu_full::SimdMisc                    0      0.00%     15.66% # attempts to use FU when none available
system.cpu0.iq.fu_full::SimdMult                    0      0.00%     15.66% # attempts to use FU when none available
system.cpu0.iq.fu_full::SimdMultAcc                 0      0.00%     15.66% # attempts to use FU when none available
system.cpu0.iq.fu_full::SimdShift                   0      0.00%     15.66% # attempts to use FU when none available
system.cpu0.iq.fu_full::SimdShiftAcc                0      0.00%     15.66% # attempts to use FU when none available
system.cpu0.iq.fu_full::SimdDiv                     0      0.00%     15.66% # attempts to use FU when none available
system.cpu0.iq.fu_full::SimdSqrt                    0      0.00%     15.66% # attempts to use FU when none available
system.cpu0.iq.fu_full::SimdFloatAdd                0      0.00%     15.66% # attempts to use FU when none available
system.cpu0.iq.fu_full::SimdFloatAlu                0      0.00%     15.66% # attempts to use FU when none available
system.cpu0.iq.fu_full::SimdFloatCmp                0      0.00%     15.66% # attempts to use FU when none available
system.cpu0.iq.fu_full::SimdFloatCvt                0      0.00%     15.66% # attempts to use FU when none available
system.cpu0.iq.fu_full::SimdFloatDiv                0      0.00%     15.66% # attempts to use FU when none available
system.cpu0.iq.fu_full::SimdFloatMisc               0      0.00%     15.66% # attempts to use FU when none available
system.cpu0.iq.fu_full::SimdFloatMult               0      0.00%     15.66% # attempts to use FU when none available
system.cpu0.iq.fu_full::SimdFloatMultAcc            0      0.00%     15.66% # attempts to use FU when none available
system.cpu0.iq.fu_full::SimdFloatSqrt               0      0.00%     15.66% # attempts to use FU when none available
system.cpu0.iq.fu_full::SimdReduceAdd               0      0.00%     15.66% # attempts to use FU when none available
system.cpu0.iq.fu_full::SimdReduceAlu               0      0.00%     15.66% # attempts to use FU when none available
system.cpu0.iq.fu_full::SimdReduceCmp               0      0.00%     15.66% # attempts to use FU when none available
system.cpu0.iq.fu_full::SimdFloatReduceAdd            0      0.00%     15.66% # attempts to use FU when none available
system.cpu0.iq.fu_full::SimdFloatReduceCmp            0      0.00%     15.66% # attempts to use FU when none available
system.cpu0.iq.fu_full::SimdAes                     0      0.00%     15.66% # attempts to use FU when none available
system.cpu0.iq.fu_full::SimdAesMix                  0      0.00%     15.66% # attempts to use FU when none available
system.cpu0.iq.fu_full::SimdSha1Hash                0      0.00%     15.66% # attempts to use FU when none available
system.cpu0.iq.fu_full::SimdSha1Hash2               0      0.00%     15.66% # attempts to use FU when none available
system.cpu0.iq.fu_full::SimdSha256Hash              0      0.00%     15.66% # attempts to use FU when none available
system.cpu0.iq.fu_full::SimdSha256Hash2             0      0.00%     15.66% # attempts to use FU when none available
system.cpu0.iq.fu_full::SimdShaSigma2               0      0.00%     15.66% # attempts to use FU when none available
system.cpu0.iq.fu_full::SimdShaSigma3               0      0.00%     15.66% # attempts to use FU when none available
system.cpu0.iq.fu_full::SimdPredAlu                 0      0.00%     15.66% # attempts to use FU when none available
system.cpu0.iq.fu_full::MemRead               1173808     71.45%     87.11% # attempts to use FU when none available
system.cpu0.iq.fu_full::MemWrite               211835     12.89%    100.00% # attempts to use FU when none available
system.cpu0.iq.fu_full::FloatMemRead                0      0.00%    100.00% # attempts to use FU when none available
system.cpu0.iq.fu_full::FloatMemWrite               2      0.00%    100.00% # attempts to use FU when none available
system.cpu0.iq.fu_full::IprAccess                   0      0.00%    100.00% # attempts to use FU when none available
system.cpu0.iq.fu_full::InstPrefetch                0      0.00%    100.00% # attempts to use FU when none available
system.cpu0.iq.int_alu_accesses            1290175475                       # Number of integer alu accesses
system.cpu0.iq.int_inst_queue_reads        4760382185                       # Number of integer instruction queue reads
system.cpu0.iq.int_inst_queue_wakeup_accesses   1274801966                       # Number of integer instruction queue wakeup accesses
system.cpu0.iq.int_inst_queue_writes       1339302674                       # Number of integer instruction queue writes
system.cpu0.iq.iqInstsAdded                1292265661                       # Number of instructions added to the IQ (excludes non-spec)
system.cpu0.iq.iqInstsIssued               1290638792                       # Number of instructions issued
system.cpu0.iq.iqNonSpecInstsAdded            3161050                       # Number of non-speculative instructions added to the IQ
system.cpu0.iq.iqSquashedInstsExamined       43864818                       # Number of squashed instructions iterated over during squash; mainly for profiling
system.cpu0.iq.iqSquashedInstsIssued           110759                       # Number of squashed instructions issued
system.cpu0.iq.iqSquashedNonSpecRemoved           439                       # Number of squashed non-spec instructions that were removed
system.cpu0.iq.iqSquashedOperandsExamined     21997050                       # Number of squashed operands that are examined and possibly removed from graph
system.cpu0.iq.issued_per_cycle::samples   2177351081                       # Number of insts issued each cycle
system.cpu0.iq.issued_per_cycle::mean        0.592756                       # Number of insts issued each cycle
system.cpu0.iq.issued_per_cycle::stdev       0.795656                       # Number of insts issued each cycle
system.cpu0.iq.issued_per_cycle::underflows            0      0.00%      0.00% # Number of insts issued each cycle
system.cpu0.iq.issued_per_cycle::0         1223620732     56.20%     56.20% # Number of insts issued each cycle
system.cpu0.iq.issued_per_cycle::1          685013213     31.46%     87.66% # Number of insts issued each cycle
system.cpu0.iq.issued_per_cycle::2          214941959      9.87%     97.53% # Number of insts issued each cycle
system.cpu0.iq.issued_per_cycle::3           43570322      2.00%     99.53% # Number of insts issued each cycle
system.cpu0.iq.issued_per_cycle::4            7879909      0.36%     99.89% # Number of insts issued each cycle
system.cpu0.iq.issued_per_cycle::5            1092456      0.05%     99.94% # Number of insts issued each cycle
system.cpu0.iq.issued_per_cycle::6             715722      0.03%     99.98% # Number of insts issued each cycle
system.cpu0.iq.issued_per_cycle::7             379697      0.02%     99.99% # Number of insts issued each cycle
system.cpu0.iq.issued_per_cycle::8             137071      0.01%    100.00% # Number of insts issued each cycle
system.cpu0.iq.issued_per_cycle::overflows            0      0.00%    100.00% # Number of insts issued each cycle
system.cpu0.iq.issued_per_cycle::min_value            0                       # Number of insts issued each cycle
system.cpu0.iq.issued_per_cycle::max_value            8                       # Number of insts issued each cycle
system.cpu0.iq.issued_per_cycle::total     2177351081                       # Number of insts issued each cycle
system.cpu0.iq.rate                          0.555234                       # Inst issue rate
system.cpu0.iq.vec_alu_accesses                     0                       # Number of vector alu accesses
system.cpu0.iq.vec_inst_queue_reads                 0                       # Number of vector instruction queue reads
system.cpu0.iq.vec_inst_queue_wakeup_accesses            0                       # Number of vector instruction queue wakeup accesses
system.cpu0.iq.vec_inst_queue_writes                0                       # Number of vector instruction queue writes
system.cpu0.itb.accesses                            0                       # DTB accesses
system.cpu0.itb.hits                                0                       # DTB hits
system.cpu0.itb.misses                              0                       # DTB misses
system.cpu0.itb.read_accesses                       0                       # DTB read accesses
system.cpu0.itb.read_hits                           0                       # DTB read hits
system.cpu0.itb.read_misses                         0                       # DTB read misses
system.cpu0.itb.write_accesses                      0                       # DTB write accesses
system.cpu0.itb.write_hits                          0                       # DTB write hits
system.cpu0.itb.write_misses                        0                       # DTB write misses
system.cpu0.memDep0.conflictingLoads         12994905                       # Number of conflicting loads.
system.cpu0.memDep0.conflictingStores         1280267                       # Number of conflicting stores.
system.cpu0.memDep0.insertedLoads           408561435                       # Number of loads inserted to the mem dependence unit.
system.cpu0.memDep0.insertedStores          149814221                       # Number of stores inserted to the mem dependence unit.
system.cpu0.misc_regfile_reads                   2070                       # number of misc regfile reads
system.cpu0.misc_regfile_writes                    22                       # number of misc regfile writes
system.cpu0.numCycles                      2324495147                       # number of cpu cycles simulated
system.cpu0.numWorkItemsCompleted                   0                       # number of work items this cpu completed
system.cpu0.numWorkItemsStarted                     0                       # number of work items this cpu started
system.cpu0.quiesceCycles                     9990250                       # Total number of cycles that CPU has spent quiesced or waiting for an interrupt
system.cpu0.rename.BlockCycles              233807134                       # Number of cycles rename is blocking
system.cpu0.rename.CommittedMaps            800535572                       # Number of HB maps that are committed
system.cpu0.rename.IQFullEvents               7795550                       # Number of times rename has blocked due to IQ full
system.cpu0.rename.IdleCycles               985889545                       # Number of cycles rename is idle
system.cpu0.rename.LQFullEvents              11548449                       # Number of times rename has blocked due to LQ full
system.cpu0.rename.ROBFullEvents                25591                       # Number of times rename has blocked due to ROB full
system.cpu0.rename.RenameLookups           1602131483                       # Number of register rename lookups that rename has made
system.cpu0.rename.RenamedInsts            1308107251                       # Number of instructions processed by rename
system.cpu0.rename.RenamedOperands          845517202                       # Number of destination operands rename has renamed
system.cpu0.rename.RunCycles                914687210                       # Number of cycles rename is running
system.cpu0.rename.SQFullEvents              14402535                       # Number of times rename has blocked due to SQ full
system.cpu0.rename.SquashCycles               9078923                       # Number of cycles rename is squashing
system.cpu0.rename.UnblockCycles             33733958                       # Number of cycles rename is unblocking
system.cpu0.rename.UndoneMaps                44981625                       # Number of HB maps that are undone due to squashing
system.cpu0.rename.fp_rename_lookups               44                       # Number of floating rename lookups
system.cpu0.rename.int_rename_lookups      1602131439                       # Number of integer rename lookups
system.cpu0.rename.serializeStallCycles        154311                       # count of cycles rename stalled for serializing inst
system.cpu0.rename.serializingInsts              6282                       # count of serializing insts renamed
system.cpu0.rename.skidInsts                 16144223                       # count of insts added to the skid buffer
system.cpu0.rename.tempSerializingInsts          6234                       # count of temporary serializing insts renamed
system.cpu0.rob.rob_reads                  3430881363                       # The number of ROB reads
system.cpu0.rob.rob_writes                 2602511994                       # The number of ROB writes
system.cpu0.timesIdled                       31216497                       # Number of times that the entire CPU went into an idle state and unscheduled itself
system.cpu0.workload.numSyscalls                 2037                       # Number of system calls
system.cpu1.branchPred.BTBCorrect                   0                       # Number of correct BTB predictions (this stat may not work properly.
system.cpu1.branchPred.BTBHitPct            84.680829                       # BTB Hit Percentage
system.cpu1.branchPred.BTBHits               12370781                       # Number of BTB hits
system.cpu1.branchPred.BTBLookups            14608715                       # Number of BTB lookups
system.cpu1.branchPred.RASInCorrect                 0                       # Number of incorrect RAS predictions.
system.cpu1.branchPred.condIncorrect          1806738                       # Number of conditional branches incorrect
system.cpu1.branchPred.condPredicted         18187588                       # Number of conditional branches predicted
system.cpu1.branchPred.indirectHits            665589                       # Number of indirect target hits.
system.cpu1.branchPred.indirectLookups         678872                       # Number of indirect predictor lookups.
system.cpu1.branchPred.indirectMisses           13283                       # Number of indirect misses.
system.cpu1.branchPred.lookups               21228188                       # Number of BP lookups
system.cpu1.branchPred.usedRAS                      0                       # Number of times the RAS was used to get a target.
system.cpu1.branchPredindirectMispredicted        41944                       # Number of mispredicted indirect branches.
system.cpu1.commit.amos                       1050207                       # Number of atomic instructions committed
system.cpu1.commit.branchMispredicts          1334464                       # The number of times a branch was mispredicted
system.cpu1.commit.branches                  16231435                       # Number of branches committed
system.cpu1.commit.bw_lim_events              2127091                       # number cycles where commit BW limit reached
system.cpu1.commit.commitNonSpecStalls        3151306                       # The number of times commit has been forced to stall to communicate backwards
system.cpu1.commit.commitSquashedInsts       11465052                       # The number of squashed insts skipped by commit
system.cpu1.commit.committedInsts            67694354                       # Number of instructions committed
system.cpu1.commit.committedOps              68744753                       # Number of ops (including micro ops) committed
system.cpu1.commit.committed_per_cycle::samples    303604512                       # Number of insts commited each cycle
system.cpu1.commit.committed_per_cycle::mean     0.226429                       # Number of insts commited each cycle
system.cpu1.commit.committed_per_cycle::stdev     0.941213                       # Number of insts commited each cycle
system.cpu1.commit.committed_per_cycle::underflows            0      0.00%      0.00% # Number of insts commited each cycle
system.cpu1.commit.committed_per_cycle::0    274728999     90.49%     90.49% # Number of insts commited each cycle
system.cpu1.commit.committed_per_cycle::1     14410939      4.75%     95.24% # Number of insts commited each cycle
system.cpu1.commit.committed_per_cycle::2      5530753      1.82%     97.06% # Number of insts commited each cycle
system.cpu1.commit.committed_per_cycle::3      4176256      1.38%     98.43% # Number of insts commited each cycle
system.cpu1.commit.committed_per_cycle::4       898432      0.30%     98.73% # Number of insts commited each cycle
system.cpu1.commit.committed_per_cycle::5       455039      0.15%     98.88% # Number of insts commited each cycle
system.cpu1.commit.committed_per_cycle::6      1081132      0.36%     99.23% # Number of insts commited each cycle
system.cpu1.commit.committed_per_cycle::7       195871      0.06%     99.30% # Number of insts commited each cycle
system.cpu1.commit.committed_per_cycle::8      2127091      0.70%    100.00% # Number of insts commited each cycle
system.cpu1.commit.committed_per_cycle::overflows            0      0.00%    100.00% # Number of insts commited each cycle
system.cpu1.commit.committed_per_cycle::min_value            0                       # Number of insts commited each cycle
system.cpu1.commit.committed_per_cycle::max_value            8                       # Number of insts commited each cycle
system.cpu1.commit.committed_per_cycle::total    303604512                       # Number of insts commited each cycle
system.cpu1.commit.fp_insts                        12                       # Number of committed floating point instructions.
system.cpu1.commit.function_calls             1075236                       # Number of function calls committed.
system.cpu1.commit.int_insts                 65729268                       # Number of committed integer instructions.
system.cpu1.commit.loads                     16754402                       # Number of loads committed
system.cpu1.commit.membars                    2100488                       # Number of memory barriers committed
system.cpu1.commit.op_class_0::No_OpClass      2100488      3.06%      3.06% # Class of committed instruction
system.cpu1.commit.op_class_0::IntAlu        43611932     63.44%     66.50% # Class of committed instruction
system.cpu1.commit.op_class_0::IntMult             44      0.00%     66.50% # Class of committed instruction
system.cpu1.commit.op_class_0::IntDiv              88      0.00%     66.50% # Class of committed instruction
system.cpu1.commit.op_class_0::FloatAdd             0      0.00%     66.50% # Class of committed instruction
system.cpu1.commit.op_class_0::FloatCmp             0      0.00%     66.50% # Class of committed instruction
system.cpu1.commit.op_class_0::FloatCvt             0      0.00%     66.50% # Class of committed instruction
system.cpu1.commit.op_class_0::FloatMult            0      0.00%     66.50% # Class of committed instruction
system.cpu1.commit.op_class_0::FloatMultAcc            0      0.00%     66.50% # Class of committed instruction
system.cpu1.commit.op_class_0::FloatDiv             0      0.00%     66.50% # Class of committed instruction
system.cpu1.commit.op_class_0::FloatMisc            0      0.00%     66.50% # Class of committed instruction
system.cpu1.commit.op_class_0::FloatSqrt            0      0.00%     66.50% # Class of committed instruction
system.cpu1.commit.op_class_0::SimdAdd              0      0.00%     66.50% # Class of committed instruction
system.cpu1.commit.op_class_0::SimdAddAcc            0      0.00%     66.50% # Class of committed instruction
system.cpu1.commit.op_class_0::SimdAlu              0      0.00%     66.50% # Class of committed instruction
system.cpu1.commit.op_class_0::SimdCmp              0      0.00%     66.50% # Class of committed instruction
system.cpu1.commit.op_class_0::SimdCvt              0      0.00%     66.50% # Class of committed instruction
system.cpu1.commit.op_class_0::SimdMisc             0      0.00%     66.50% # Class of committed instruction
system.cpu1.commit.op_class_0::SimdMult             0      0.00%     66.50% # Class of committed instruction
system.cpu1.commit.op_class_0::SimdMultAcc            0      0.00%     66.50% # Class of committed instruction
system.cpu1.commit.op_class_0::SimdShift            0      0.00%     66.50% # Class of committed instruction
system.cpu1.commit.op_class_0::SimdShiftAcc            0      0.00%     66.50% # Class of committed instruction
system.cpu1.commit.op_class_0::SimdDiv              0      0.00%     66.50% # Class of committed instruction
system.cpu1.commit.op_class_0::SimdSqrt             0      0.00%     66.50% # Class of committed instruction
system.cpu1.commit.op_class_0::SimdFloatAdd            0      0.00%     66.50% # Class of committed instruction
system.cpu1.commit.op_class_0::SimdFloatAlu            0      0.00%     66.50% # Class of committed instruction
system.cpu1.commit.op_class_0::SimdFloatCmp            0      0.00%     66.50% # Class of committed instruction
system.cpu1.commit.op_class_0::SimdFloatCvt            0      0.00%     66.50% # Class of committed instruction
system.cpu1.commit.op_class_0::SimdFloatDiv            0      0.00%     66.50% # Class of committed instruction
system.cpu1.commit.op_class_0::SimdFloatMisc            0      0.00%     66.50% # Class of committed instruction
system.cpu1.commit.op_class_0::SimdFloatMult            0      0.00%     66.50% # Class of committed instruction
system.cpu1.commit.op_class_0::SimdFloatMultAcc            0      0.00%     66.50% # Class of committed instruction
system.cpu1.commit.op_class_0::SimdFloatSqrt            0      0.00%     66.50% # Class of committed instruction
system.cpu1.commit.op_class_0::SimdReduceAdd            0      0.00%     66.50% # Class of committed instruction
system.cpu1.commit.op_class_0::SimdReduceAlu            0      0.00%     66.50% # Class of committed instruction
system.cpu1.commit.op_class_0::SimdReduceCmp            0      0.00%     66.50% # Class of committed instruction
system.cpu1.commit.op_class_0::SimdFloatReduceAdd            0      0.00%     66.50% # Class of committed instruction
system.cpu1.commit.op_class_0::SimdFloatReduceCmp            0      0.00%     66.50% # Class of committed instruction
system.cpu1.commit.op_class_0::SimdAes              0      0.00%     66.50% # Class of committed instruction
system.cpu1.commit.op_class_0::SimdAesMix            0      0.00%     66.50% # Class of committed instruction
system.cpu1.commit.op_class_0::SimdSha1Hash            0      0.00%     66.50% # Class of committed instruction
system.cpu1.commit.op_class_0::SimdSha1Hash2            0      0.00%     66.50% # Class of committed instruction
system.cpu1.commit.op_class_0::SimdSha256Hash            0      0.00%     66.50% # Class of committed instruction
system.cpu1.commit.op_class_0::SimdSha256Hash2            0      0.00%     66.50% # Class of committed instruction
system.cpu1.commit.op_class_0::SimdShaSigma2            0      0.00%     66.50% # Class of committed instruction
system.cpu1.commit.op_class_0::SimdShaSigma3            0      0.00%     66.50% # Class of committed instruction
system.cpu1.commit.op_class_0::SimdPredAlu            0      0.00%     66.50% # Class of committed instruction
system.cpu1.commit.op_class_0::MemRead       17804609     25.90%     92.40% # Class of committed instruction
system.cpu1.commit.op_class_0::MemWrite       5227580      7.60%    100.00% # Class of committed instruction
system.cpu1.commit.op_class_0::FloatMemRead            0      0.00%    100.00% # Class of committed instruction
system.cpu1.commit.op_class_0::FloatMemWrite           12      0.00%    100.00% # Class of committed instruction
system.cpu1.commit.op_class_0::IprAccess            0      0.00%    100.00% # Class of committed instruction
system.cpu1.commit.op_class_0::InstPrefetch            0      0.00%    100.00% # Class of committed instruction
system.cpu1.commit.op_class_0::total         68744753                       # Class of committed instruction
system.cpu1.commit.refs                      23032201                       # Number of memory references committed
system.cpu1.commit.swp_count                        0                       # Number of s/w prefetches committed
system.cpu1.commit.vec_insts                        0                       # Number of committed Vector instructions.
system.cpu1.committedInsts                   67694354                       # Number of Instructions Simulated
system.cpu1.committedOps                     68744753                       # Number of Ops (including micro ops) Simulated
system.cpu1.cpi                              4.559186                       # CPI: Cycles Per Instruction
system.cpu1.cpi_total                        4.559186                       # CPI: Total CPI of All Threads
system.cpu1.decode.BlockedCycles            244897033                       # Number of cycles decode is blocked
system.cpu1.decode.BranchMispred               504239                       # Number of times decode detected a branch misprediction
system.cpu1.decode.BranchResolved            11742971                       # Number of times decode resolved a branch
system.cpu1.decode.DecodedInsts              84765541                       # Number of instructions handled by decode
system.cpu1.decode.IdleCycles                16978910                       # Number of cycles decode is idle
system.cpu1.decode.RunCycles                 40030287                       # Number of cycles decode is running
system.cpu1.decode.SquashCycles               1336023                       # Number of cycles decode is squashing
system.cpu1.decode.SquashedInsts              1231907                       # Number of squashed instructions handled by decode
system.cpu1.decode.UnblockCycles              2691956                       # Number of cycles decode is unblocking
system.cpu1.dtb.accesses                            0                       # DTB accesses
system.cpu1.dtb.hits                                0                       # DTB hits
system.cpu1.dtb.misses                              0                       # DTB misses
system.cpu1.dtb.read_accesses                       0                       # DTB read accesses
system.cpu1.dtb.read_hits                           0                       # DTB read hits
system.cpu1.dtb.read_misses                         0                       # DTB read misses
system.cpu1.dtb.write_accesses                      0                       # DTB write accesses
system.cpu1.dtb.write_hits                          0                       # DTB write hits
system.cpu1.dtb.write_misses                        0                       # DTB write misses
system.cpu1.fetch.Branches                   21228188                       # Number of branches that fetch encountered
system.cpu1.fetch.CacheLines                 14335073                       # Number of cache lines fetched
system.cpu1.fetch.Cycles                    288303261                       # Number of cycles fetch has run and was not squashing or blocked
system.cpu1.fetch.IcacheSquashes               174996                       # Number of outstanding Icache misses that were squashed
system.cpu1.fetch.IcacheWaitRetryStallCycles           11                       # Number of stall cycles due to full MSHR
system.cpu1.fetch.Insts                      88659120                       # Number of instructions fetch has processed
system.cpu1.fetch.MiscStallCycles                   2                       # Number of cycles fetch has spent waiting on interrupts, or bad addresses, or out of MSHRs
system.cpu1.fetch.SquashCycles                3616594                       # Number of cycles fetch has spent squashing
system.cpu1.fetch.branchRate                 0.068782                       # Number of branch fetches per cycle
system.cpu1.fetch.icacheStallCycles          15822638                       # Number of cycles fetch is stalled on an Icache miss
system.cpu1.fetch.predictedBranches          13036370                       # Number of branches that fetch has predicted taken
system.cpu1.fetch.rate                       0.287266                       # Number of inst fetches per cycle
system.cpu1.fetch.rateDist::samples         305934209                       # Number of instructions fetched each cycle (Total)
system.cpu1.fetch.rateDist::mean             0.293234                       # Number of instructions fetched each cycle (Total)
system.cpu1.fetch.rateDist::stdev            0.724093                       # Number of instructions fetched each cycle (Total)
system.cpu1.fetch.rateDist::underflows              0      0.00%      0.00% # Number of instructions fetched each cycle (Total)
system.cpu1.fetch.rateDist::0               249126946     81.43%     81.43% # Number of instructions fetched each cycle (Total)
system.cpu1.fetch.rateDist::1                35978170     11.76%     93.19% # Number of instructions fetched each cycle (Total)
system.cpu1.fetch.rateDist::2                11517665      3.76%     96.96% # Number of instructions fetched each cycle (Total)
system.cpu1.fetch.rateDist::3                 7242722      2.37%     99.32% # Number of instructions fetched each cycle (Total)
system.cpu1.fetch.rateDist::4                 1435645      0.47%     99.79% # Number of instructions fetched each cycle (Total)
system.cpu1.fetch.rateDist::5                  576395      0.19%     99.98% # Number of instructions fetched each cycle (Total)
system.cpu1.fetch.rateDist::6                   53919      0.02%    100.00% # Number of instructions fetched each cycle (Total)
system.cpu1.fetch.rateDist::7                    1299      0.00%    100.00% # Number of instructions fetched each cycle (Total)
system.cpu1.fetch.rateDist::8                    1448      0.00%    100.00% # Number of instructions fetched each cycle (Total)
system.cpu1.fetch.rateDist::overflows               0      0.00%    100.00% # Number of instructions fetched each cycle (Total)
system.cpu1.fetch.rateDist::min_value               0                       # Number of instructions fetched each cycle (Total)
system.cpu1.fetch.rateDist::max_value               8                       # Number of instructions fetched each cycle (Total)
system.cpu1.fetch.rateDist::total           305934209                       # Number of instructions fetched each cycle (Total)
system.cpu1.fp_regfile_reads                       12                       # number of floating regfile reads
system.cpu1.idleCycles                        2696952                       # Total number of cycles that the CPU has spent unscheduled due to idling
system.cpu1.iew.branchMispredicts             1406304                       # Number of branch mispredicts detected at execute
system.cpu1.iew.exec_branches                17882852                       # Number of branches executed
system.cpu1.iew.exec_nop                            0                       # number of nop insts executed
system.cpu1.iew.exec_rate                    0.248347                       # Inst execution rate
system.cpu1.iew.exec_refs                    25952585                       # number of memory reference insts executed
system.cpu1.iew.exec_stores                   6628417                       # Number of stores executed
system.cpu1.iew.exec_swp                            0                       # number of swp insts executed
system.cpu1.iew.iewBlockCycles              204017132                       # Number of cycles IEW is blocking
system.cpu1.iew.iewDispLoadInsts             19838631                       # Number of dispatched load instructions
system.cpu1.iew.iewDispNonSpecInsts           1051043                       # Number of dispatched non-speculative instructions
system.cpu1.iew.iewDispSquashedInsts          1154288                       # Number of squashed instructions skipped by dispatch
system.cpu1.iew.iewDispStoreInsts             6923275                       # Number of dispatched store instructions
system.cpu1.iew.iewDispatchedInsts           80174928                       # Number of instructions dispatched to IQ
system.cpu1.iew.iewExecLoadInsts             19324168                       # Number of load instructions executed
system.cpu1.iew.iewExecSquashedInsts          1319376                       # Number of squashed instructions skipped in execute
system.cpu1.iew.iewExecutedInsts             76647499                       # Number of executed instructions
system.cpu1.iew.iewIQFullEvents               1036728                       # Number of times the IQ has become full, causing a stall
system.cpu1.iew.iewIdleCycles                       0                       # Number of cycles IEW is idle
system.cpu1.iew.iewLSQFullEvents              8453299                       # Number of times the LSQ has become full, causing a stall
system.cpu1.iew.iewSquashCycles               1336023                       # Number of cycles IEW is squashing
system.cpu1.iew.iewUnblockCycles             10651713                       # Number of cycles IEW is unblocking
system.cpu1.iew.lsq.thread0.blockedLoads            0                       # Number of blocked loads due to partial load-store forwarding
system.cpu1.iew.lsq.thread0.cacheBlocked        72419                       # Number of times an access to memory failed due to the cache being blocked
system.cpu1.iew.lsq.thread0.forwLoads          659659                       # Number of loads that had data forwarded from stores
system.cpu1.iew.lsq.thread0.ignoredResponses        15055                       # Number of memory responses ignored because the instruction is squashed
system.cpu1.iew.lsq.thread0.invAddrLoads            0                       # Number of loads ignored due to an invalid address
system.cpu1.iew.lsq.thread0.invAddrSwpfs            0                       # Number of software prefetches ignored due to an invalid address
system.cpu1.iew.lsq.thread0.memOrderViolation         2227                       # Number of memory ordering violations
system.cpu1.iew.lsq.thread0.rescheduledLoads        11222                       # Number of loads that were rescheduled
system.cpu1.iew.lsq.thread0.squashedLoads      3084229                       # Number of loads squashed
system.cpu1.iew.lsq.thread0.squashedStores       645476                       # Number of stores squashed
system.cpu1.iew.memOrderViolationEvents          2227                       # Number of memory order violations
system.cpu1.iew.predictedNotTakenIncorrect       406495                       # Number of branches that were predicted not taken incorrectly
system.cpu1.iew.predictedTakenIncorrect        999809                       # Number of branches that were predicted taken incorrectly
system.cpu1.iew.wb_consumers                 42243885                       # num instructions consuming a value
system.cpu1.iew.wb_count                     75609101                       # cumulative count of insts written-back
system.cpu1.iew.wb_fanout                    0.841288                       # average fanout of values written-back
system.cpu1.iew.wb_producers                 35539254                       # num instructions producing a value
system.cpu1.iew.wb_rate                      0.244982                       # insts written-back per cycle
system.cpu1.iew.wb_sent                      75653947                       # cumulative count of insts sent to commit
system.cpu1.int_regfile_reads                97460264                       # number of integer regfile reads
system.cpu1.int_regfile_writes               50709577                       # number of integer regfile writes
system.cpu1.ipc                              0.219337                       # IPC: Instructions Per Cycle
system.cpu1.ipc_total                        0.219337                       # IPC: Total IPC of All Threads
system.cpu1.iq.FU_type_0::No_OpClass          2100693      2.69%      2.69% # Type of FU issued
system.cpu1.iq.FU_type_0::IntAlu             49499537     63.49%     66.18% # Type of FU issued
system.cpu1.iq.FU_type_0::IntMult                  53      0.00%     66.18% # Type of FU issued
system.cpu1.iq.FU_type_0::IntDiv                   90      0.00%     66.18% # Type of FU issued
system.cpu1.iq.FU_type_0::FloatAdd                  0      0.00%     66.18% # Type of FU issued
system.cpu1.iq.FU_type_0::FloatCmp                  0      0.00%     66.18% # Type of FU issued
system.cpu1.iq.FU_type_0::FloatCvt                  0      0.00%     66.18% # Type of FU issued
system.cpu1.iq.FU_type_0::FloatMult                 0      0.00%     66.18% # Type of FU issued
system.cpu1.iq.FU_type_0::FloatMultAcc              0      0.00%     66.18% # Type of FU issued
system.cpu1.iq.FU_type_0::FloatDiv                  0      0.00%     66.18% # Type of FU issued
system.cpu1.iq.FU_type_0::FloatMisc                 0      0.00%     66.18% # Type of FU issued
system.cpu1.iq.FU_type_0::FloatSqrt                 0      0.00%     66.18% # Type of FU issued
system.cpu1.iq.FU_type_0::SimdAdd                   0      0.00%     66.18% # Type of FU issued
system.cpu1.iq.FU_type_0::SimdAddAcc                0      0.00%     66.18% # Type of FU issued
system.cpu1.iq.FU_type_0::SimdAlu                   0      0.00%     66.18% # Type of FU issued
system.cpu1.iq.FU_type_0::SimdCmp                   0      0.00%     66.18% # Type of FU issued
system.cpu1.iq.FU_type_0::SimdCvt                   0      0.00%     66.18% # Type of FU issued
system.cpu1.iq.FU_type_0::SimdMisc                  0      0.00%     66.18% # Type of FU issued
system.cpu1.iq.FU_type_0::SimdMult                  0      0.00%     66.18% # Type of FU issued
system.cpu1.iq.FU_type_0::SimdMultAcc               0      0.00%     66.18% # Type of FU issued
system.cpu1.iq.FU_type_0::SimdShift                 0      0.00%     66.18% # Type of FU issued
system.cpu1.iq.FU_type_0::SimdShiftAcc              0      0.00%     66.18% # Type of FU issued
system.cpu1.iq.FU_type_0::SimdDiv                   0      0.00%     66.18% # Type of FU issued
system.cpu1.iq.FU_type_0::SimdSqrt                  0      0.00%     66.18% # Type of FU issued
system.cpu1.iq.FU_type_0::SimdFloatAdd              0      0.00%     66.18% # Type of FU issued
system.cpu1.iq.FU_type_0::SimdFloatAlu              0      0.00%     66.18% # Type of FU issued
system.cpu1.iq.FU_type_0::SimdFloatCmp              0      0.00%     66.18% # Type of FU issued
system.cpu1.iq.FU_type_0::SimdFloatCvt              0      0.00%     66.18% # Type of FU issued
system.cpu1.iq.FU_type_0::SimdFloatDiv              0      0.00%     66.18% # Type of FU issued
system.cpu1.iq.FU_type_0::SimdFloatMisc             0      0.00%     66.18% # Type of FU issued
system.cpu1.iq.FU_type_0::SimdFloatMult             0      0.00%     66.18% # Type of FU issued
system.cpu1.iq.FU_type_0::SimdFloatMultAcc            0      0.00%     66.18% # Type of FU issued
system.cpu1.iq.FU_type_0::SimdFloatSqrt             0      0.00%     66.18% # Type of FU issued
system.cpu1.iq.FU_type_0::SimdReduceAdd             0      0.00%     66.18% # Type of FU issued
system.cpu1.iq.FU_type_0::SimdReduceAlu             0      0.00%     66.18% # Type of FU issued
system.cpu1.iq.FU_type_0::SimdReduceCmp             0      0.00%     66.18% # Type of FU issued
system.cpu1.iq.FU_type_0::SimdFloatReduceAdd            0      0.00%     66.18% # Type of FU issued
system.cpu1.iq.FU_type_0::SimdFloatReduceCmp            0      0.00%     66.18% # Type of FU issued
system.cpu1.iq.FU_type_0::SimdAes                   0      0.00%     66.18% # Type of FU issued
system.cpu1.iq.FU_type_0::SimdAesMix                0      0.00%     66.18% # Type of FU issued
system.cpu1.iq.FU_type_0::SimdSha1Hash              0      0.00%     66.18% # Type of FU issued
system.cpu1.iq.FU_type_0::SimdSha1Hash2             0      0.00%     66.18% # Type of FU issued
system.cpu1.iq.FU_type_0::SimdSha256Hash            0      0.00%     66.18% # Type of FU issued
system.cpu1.iq.FU_type_0::SimdSha256Hash2            0      0.00%     66.18% # Type of FU issued
system.cpu1.iq.FU_type_0::SimdShaSigma2             0      0.00%     66.18% # Type of FU issued
system.cpu1.iq.FU_type_0::SimdShaSigma3             0      0.00%     66.18% # Type of FU issued
system.cpu1.iq.FU_type_0::SimdPredAlu               0      0.00%     66.18% # Type of FU issued
system.cpu1.iq.FU_type_0::MemRead            20731144     26.59%     92.77% # Type of FU issued
system.cpu1.iq.FU_type_0::MemWrite            5635346      7.23%    100.00% # Type of FU issued
system.cpu1.iq.FU_type_0::FloatMemRead              0      0.00%    100.00% # Type of FU issued
system.cpu1.iq.FU_type_0::FloatMemWrite            12      0.00%    100.00% # Type of FU issued
system.cpu1.iq.FU_type_0::IprAccess                 0      0.00%    100.00% # Type of FU issued
system.cpu1.iq.FU_type_0::InstPrefetch              0      0.00%    100.00% # Type of FU issued
system.cpu1.iq.FU_type_0::total              77966875                       # Type of FU issued
system.cpu1.iq.fp_alu_accesses                     14                       # Number of floating point alu accesses
system.cpu1.iq.fp_inst_queue_reads                 26                       # Number of floating instruction queue reads
system.cpu1.iq.fp_inst_queue_wakeup_accesses           12                       # Number of floating instruction queue wakeup accesses
system.cpu1.iq.fp_inst_queue_writes                12                       # Number of floating instruction queue writes
system.cpu1.iq.fu_busy_cnt                    1454845                       # FU busy when requested
system.cpu1.iq.fu_busy_rate                  0.018660                       # FU busy rate (busy events/executed inst)
system.cpu1.iq.fu_full::No_OpClass                  0      0.00%      0.00% # attempts to use FU when none available
system.cpu1.iq.fu_full::IntAlu                 310180     21.32%     21.32% # attempts to use FU when none available
system.cpu1.iq.fu_full::IntMult                     0      0.00%     21.32% # attempts to use FU when none available
system.cpu1.iq.fu_full::IntDiv                      0      0.00%     21.32% # attempts to use FU when none available
system.cpu1.iq.fu_full::FloatAdd                    0      0.00%     21.32% # attempts to use FU when none available
system.cpu1.iq.fu_full::FloatCmp                    0      0.00%     21.32% # attempts to use FU when none available
system.cpu1.iq.fu_full::FloatCvt                    0      0.00%     21.32% # attempts to use FU when none available
system.cpu1.iq.fu_full::FloatMult                   0      0.00%     21.32% # attempts to use FU when none available
system.cpu1.iq.fu_full::FloatMultAcc                0      0.00%     21.32% # attempts to use FU when none available
system.cpu1.iq.fu_full::FloatDiv                    0      0.00%     21.32% # attempts to use FU when none available
system.cpu1.iq.fu_full::FloatMisc                   0      0.00%     21.32% # attempts to use FU when none available
system.cpu1.iq.fu_full::FloatSqrt                   0      0.00%     21.32% # attempts to use FU when none available
system.cpu1.iq.fu_full::SimdAdd                     0      0.00%     21.32% # attempts to use FU when none available
system.cpu1.iq.fu_full::SimdAddAcc                  0      0.00%     21.32% # attempts to use FU when none available
system.cpu1.iq.fu_full::SimdAlu                     0      0.00%     21.32% # attempts to use FU when none available
system.cpu1.iq.fu_full::SimdCmp                     0      0.00%     21.32% # attempts to use FU when none available
system.cpu1.iq.fu_full::SimdCvt                     0      0.00%     21.32% # attempts to use FU when none available
system.cpu1.iq.fu_full::SimdMisc                    0      0.00%     21.32% # attempts to use FU when none available
system.cpu1.iq.fu_full::SimdMult                    0      0.00%     21.32% # attempts to use FU when none available
system.cpu1.iq.fu_full::SimdMultAcc                 0      0.00%     21.32% # attempts to use FU when none available
system.cpu1.iq.fu_full::SimdShift                   0      0.00%     21.32% # attempts to use FU when none available
system.cpu1.iq.fu_full::SimdShiftAcc                0      0.00%     21.32% # attempts to use FU when none available
system.cpu1.iq.fu_full::SimdDiv                     0      0.00%     21.32% # attempts to use FU when none available
system.cpu1.iq.fu_full::SimdSqrt                    0      0.00%     21.32% # attempts to use FU when none available
system.cpu1.iq.fu_full::SimdFloatAdd                0      0.00%     21.32% # attempts to use FU when none available
system.cpu1.iq.fu_full::SimdFloatAlu                0      0.00%     21.32% # attempts to use FU when none available
system.cpu1.iq.fu_full::SimdFloatCmp                0      0.00%     21.32% # attempts to use FU when none available
system.cpu1.iq.fu_full::SimdFloatCvt                0      0.00%     21.32% # attempts to use FU when none available
system.cpu1.iq.fu_full::SimdFloatDiv                0      0.00%     21.32% # attempts to use FU when none available
system.cpu1.iq.fu_full::SimdFloatMisc               0      0.00%     21.32% # attempts to use FU when none available
system.cpu1.iq.fu_full::SimdFloatMult               0      0.00%     21.32% # attempts to use FU when none available
system.cpu1.iq.fu_full::SimdFloatMultAcc            0      0.00%     21.32% # attempts to use FU when none available
system.cpu1.iq.fu_full::SimdFloatSqrt               0      0.00%     21.32% # attempts to use FU when none available
system.cpu1.iq.fu_full::SimdReduceAdd               0      0.00%     21.32% # attempts to use FU when none available
system.cpu1.iq.fu_full::SimdReduceAlu               0      0.00%     21.32% # attempts to use FU when none available
system.cpu1.iq.fu_full::SimdReduceCmp               0      0.00%     21.32% # attempts to use FU when none available
system.cpu1.iq.fu_full::SimdFloatReduceAdd            0      0.00%     21.32% # attempts to use FU when none available
system.cpu1.iq.fu_full::SimdFloatReduceCmp            0      0.00%     21.32% # attempts to use FU when none available
system.cpu1.iq.fu_full::SimdAes                     0      0.00%     21.32% # attempts to use FU when none available
system.cpu1.iq.fu_full::SimdAesMix                  0      0.00%     21.32% # attempts to use FU when none available
system.cpu1.iq.fu_full::SimdSha1Hash                0      0.00%     21.32% # attempts to use FU when none available
system.cpu1.iq.fu_full::SimdSha1Hash2               0      0.00%     21.32% # attempts to use FU when none available
system.cpu1.iq.fu_full::SimdSha256Hash              0      0.00%     21.32% # attempts to use FU when none available
system.cpu1.iq.fu_full::SimdSha256Hash2             0      0.00%     21.32% # attempts to use FU when none available
system.cpu1.iq.fu_full::SimdShaSigma2               0      0.00%     21.32% # attempts to use FU when none available
system.cpu1.iq.fu_full::SimdShaSigma3               0      0.00%     21.32% # attempts to use FU when none available
system.cpu1.iq.fu_full::SimdPredAlu                 0      0.00%     21.32% # attempts to use FU when none available
system.cpu1.iq.fu_full::MemRead                934553     64.24%     85.56% # attempts to use FU when none available
[...]
system.cpu1.dcache.WriteReq_mshr_miss_rate::total     0.038976                       # mshr miss rate for WriteReq accesses
system.cpu1.dcache.WriteReq_avg_mshr_miss_latency::.cpu1.data 71798.380920                       # average WriteReq mshr miss latency
system.cpu1.dcache.WriteReq_avg_mshr_miss_latency::total 71798.380920                       # average WriteReq mshr miss latency
system.cpu1.dcache.LoadLockedReq_hits::.cpu1.data      1445641                       # number of LoadLockedReq hits
system.cpu1.dcache.LoadLockedReq_hits::total      1445641                       # number of LoadLockedReq hits
system.cpu1.dcache.LoadLockedReq_misses::.cpu1.data         3798                       # number of LoadLockedReq misses
system.cpu1.dcache.LoadLockedReq_misses::total         3798                       # number of LoadLockedReq misses
system.cpu1.dcache.LoadLockedReq_miss_latency::.cpu1.data     79788500                       # number of LoadLockedReq miss cycles
system.cpu1.dcache.LoadLockedReq_miss_latency::total     79788500                       # number of LoadLockedReq miss cycles
system.cpu1.dcache.LoadLockedReq_accesses::.cpu1.data      1449439                       # number of LoadLockedReq accesses(hits+misses)
system.cpu1.dcache.LoadLockedReq_accesses::total      1449439                       # number of LoadLockedReq accesses(hits+misses)
system.cpu1.dcache.LoadLockedReq_miss_rate::.cpu1.data     0.002620                       # miss rate for LoadLockedReq accesses
system.cpu1.dcache.LoadLockedReq_miss_rate::total     0.002620                       # miss rate for LoadLockedReq accesses
system.cpu1.dcache.LoadLockedReq_avg_miss_latency::.cpu1.data 21008.030542                       # average LoadLockedReq miss latency
system.cpu1.dcache.LoadLockedReq_avg_miss_latency::total 21008.030542                       # average LoadLockedReq miss latency
system.cpu1.dcache.LoadLockedReq_mshr_hits::.cpu1.data          304                       # number of LoadLockedReq MSHR hits
system.cpu1.dcache.LoadLockedReq_mshr_hits::total          304                       # number of LoadLockedReq MSHR hits
system.cpu1.dcache.LoadLockedReq_mshr_misses::.cpu1.data         3494                       # number of LoadLockedReq MSHR misses
system.cpu1.dcache.LoadLockedReq_mshr_misses::total         3494                       # number of LoadLockedReq MSHR misses
system.cpu1.dcache.LoadLockedReq_mshr_miss_latency::.cpu1.data     70722500                       # number of LoadLockedReq MSHR miss cycles
system.cpu1.dcache.LoadLockedReq_mshr_miss_latency::total     70722500                       # number of LoadLockedReq MSHR miss cycles
system.cpu1.dcache.LoadLockedReq_mshr_miss_rate::.cpu1.data     0.002411                       # mshr miss rate for LoadLockedReq accesses
system.cpu1.dcache.LoadLockedReq_mshr_miss_rate::total     0.002411                       # mshr miss rate for LoadLockedReq accesses
system.cpu1.dcache.LoadLockedReq_avg_mshr_miss_latency::.cpu1.data 20241.127647                       # average LoadLockedReq mshr miss latency
system.cpu1.dcache.LoadLockedReq_avg_mshr_miss_latency::total 20241.127647                       # average LoadLockedReq mshr miss latency
system.cpu1.dcache.StoreCondReq_hits::.cpu1.data      1447167                       # number of StoreCondReq hits
system.cpu1.dcache.StoreCondReq_hits::total      1447167                       # number of StoreCondReq hits
system.cpu1.dcache.StoreCondReq_misses::.cpu1.data         1759                       # number of StoreCondReq misses
system.cpu1.dcache.StoreCondReq_misses::total         1759                       # number of StoreCondReq misses
system.cpu1.dcache.StoreCondReq_miss_latency::.cpu1.data     36822000                       # number of StoreCondReq miss cycles
system.cpu1.dcache.StoreCondReq_miss_latency::total     36822000                       # number of StoreCondReq miss cycles
system.cpu1.dcache.StoreCondReq_accesses::.cpu1.data      1448926                       # number of StoreCondReq accesses(hits+misses)
system.cpu1.dcache.StoreCondReq_accesses::total      1448926                       # number of StoreCondReq accesses(hits+misses)
system.cpu1.dcache.StoreCondReq_miss_rate::.cpu1.data     0.001214                       # miss rate for StoreCondReq accesses
system.cpu1.dcache.StoreCondReq_miss_rate::total     0.001214                       # miss rate for StoreCondReq accesses
system.cpu1.dcache.StoreCondReq_avg_miss_latency::.cpu1.data 20933.484935                       # average StoreCondReq miss latency
system.cpu1.dcache.StoreCondReq_avg_miss_latency::total 20933.484935                       # average StoreCondReq miss latency
system.cpu1.dcache.StoreCondReq_mshr_misses::.cpu1.data         1743                       # number of StoreCondReq MSHR misses
system.cpu1.dcache.StoreCondReq_mshr_misses::total         1743                       # number of StoreCondReq MSHR misses
system.cpu1.dcache.StoreCondReq_mshr_miss_latency::.cpu1.data     35134000                       # number of StoreCondReq MSHR miss cycles
system.cpu1.dcache.StoreCondReq_mshr_miss_latency::total     35134000                       # number of StoreCondReq MSHR miss cycles
system.cpu1.dcache.StoreCondReq_mshr_miss_rate::.cpu1.data     0.001203                       # mshr miss rate for StoreCondReq accesses
system.cpu1.dcache.StoreCondReq_mshr_miss_rate::total     0.001203                       # mshr miss rate for StoreCondReq accesses
system.cpu1.dcache.StoreCondReq_avg_mshr_miss_latency::.cpu1.data 20157.200229                       # average StoreCondReq mshr miss latency
system.cpu1.dcache.StoreCondReq_avg_mshr_miss_latency::total 20157.200229                       # average StoreCondReq mshr miss latency
system.cpu1.dcache.StoreCondFailReq_miss_latency::.cpu1.data       655000                       # number of StoreCondFailReq miss cycles
system.cpu1.dcache.StoreCondFailReq_miss_latency::total       655000                       # number of StoreCondFailReq miss cycles
system.cpu1.dcache.StoreCondFailReq_avg_miss_latency::.cpu1.data          inf                       # average StoreCondFailReq miss latency
system.cpu1.dcache.StoreCondFailReq_avg_miss_latency::total          inf                       # average StoreCondFailReq miss latency
system.cpu1.dcache.StoreCondFailReq_mshr_miss_latency::.cpu1.data       600000                       # number of StoreCondFailReq MSHR miss cycles
system.cpu1.dcache.StoreCondFailReq_mshr_miss_latency::total       600000                       # number of StoreCondFailReq MSHR miss cycles
system.cpu1.dcache.StoreCondFailReq_avg_mshr_miss_latency::.cpu1.data          inf                       # average StoreCondFailReq mshr miss latency
system.cpu1.dcache.StoreCondFailReq_avg_mshr_miss_latency::total          inf                       # average StoreCondFailReq mshr miss latency
system.cpu1.dcache.SwapReq_hits::.cpu1.data          328                       # number of SwapReq hits
system.cpu1.dcache.SwapReq_hits::total            328                       # number of SwapReq hits
system.cpu1.dcache.SwapReq_misses::.cpu1.data         1350                       # number of SwapReq misses
system.cpu1.dcache.SwapReq_misses::total         1350                       # number of SwapReq misses
system.cpu1.dcache.SwapReq_miss_latency::.cpu1.data     56245000                       # number of SwapReq miss cycles
system.cpu1.dcache.SwapReq_miss_latency::total     56245000                       # number of SwapReq miss cycles
system.cpu1.dcache.SwapReq_accesses::.cpu1.data         1678                       # number of SwapReq accesses(hits+misses)
system.cpu1.dcache.SwapReq_accesses::total         1678                       # number of SwapReq accesses(hits+misses)
system.cpu1.dcache.SwapReq_miss_rate::.cpu1.data     0.804529                       # miss rate for SwapReq accesses
system.cpu1.dcache.SwapReq_miss_rate::total     0.804529                       # miss rate for SwapReq accesses
system.cpu1.dcache.SwapReq_avg_miss_latency::.cpu1.data 41662.962963                       # average SwapReq miss latency
system.cpu1.dcache.SwapReq_avg_miss_latency::total 41662.962963                       # average SwapReq miss latency
system.cpu1.dcache.SwapReq_mshr_misses::.cpu1.data         1350                       # number of SwapReq MSHR misses
system.cpu1.dcache.SwapReq_mshr_misses::total         1350                       # number of SwapReq MSHR misses
system.cpu1.dcache.SwapReq_mshr_miss_latency::.cpu1.data     54895000                       # number of SwapReq MSHR miss cycles
system.cpu1.dcache.SwapReq_mshr_miss_latency::total     54895000                       # number of SwapReq MSHR miss cycles
system.cpu1.dcache.SwapReq_mshr_miss_rate::.cpu1.data     0.804529                       # mshr miss rate for SwapReq accesses
system.cpu1.dcache.SwapReq_mshr_miss_rate::total     0.804529                       # mshr miss rate for SwapReq accesses
system.cpu1.dcache.SwapReq_avg_mshr_miss_latency::.cpu1.data 40662.962963                       # average SwapReq mshr miss latency
system.cpu1.dcache.SwapReq_avg_mshr_miss_latency::total 40662.962963                       # average SwapReq mshr miss latency
system.cpu1.dcache.tags.pwrStateResidencyTicks::UNDEFINED 669274947000                       # Cumulative time (in ticks) in various power states
system.cpu1.dcache.tags.tagsinuse           31.953976                       # Cycle average of tags in use
system.cpu1.dcache.tags.total_refs           92458974                       # Total number of references to valid blocks.
system.cpu1.dcache.tags.sampled_refs          7966227                       # Sample count of references to valid blocks.
system.cpu1.dcache.tags.avg_refs            11.606369                       # Average number of references to valid blocks.
system.cpu1.dcache.tags.warmup_cycle                0                       # Cycle when the warmup percentage was hit.
system.cpu1.dcache.tags.occ_blocks::.cpu1.data    31.953976                       # Average occupied blocks per requestor
system.cpu1.dcache.tags.occ_percent::.cpu1.data     0.998562                       # Average percentage of cache occupancy
system.cpu1.dcache.tags.occ_percent::total     0.998562                       # Average percentage of cache occupancy
system.cpu1.dcache.tags.occ_task_id_blocks::1024           28                       # Occupied blocks per task id
system.cpu1.dcache.tags.age_task_id_blocks_1024::2           28                       # Occupied blocks per task id
system.cpu1.dcache.tags.occ_task_id_percent::1024     0.875000                       # Percentage of cache occupancy per task id
system.cpu1.dcache.tags.tag_accesses        209130451                       # Number of tag accesses
system.cpu1.dcache.tags.data_accesses       209130451                       # Number of data accesses
system.cpu_clk_domain.clock                       500                       # Clock period in ticks
system.tol2bus.pwrStateResidencyTicks::UNDEFINED 669274947000                       # Cumulative time (in ticks) in various power states
system.tol2bus.trans_dist::ReadResp          30646097                       # Transaction distribution
system.tol2bus.trans_dist::ReadRespWithInvalidate            2                       # Transaction distribution
system.tol2bus.trans_dist::WritebackDirty     10632602                       # Transaction distribution
system.tol2bus.trans_dist::WritebackClean     25651538                       # Transaction distribution
system.tol2bus.trans_dist::CleanEvict        90564275                       # Transaction distribution
system.tol2bus.trans_dist::HardPFReq         69450465                       # Transaction distribution
system.tol2bus.trans_dist::HardPFResp              29                       # Transaction distribution
system.tol2bus.trans_dist::UpgradeReq           23671                       # Transaction distribution
system.tol2bus.trans_dist::SCUpgradeReq          6086                       # Transaction distribution
system.tol2bus.trans_dist::UpgradeResp          29757                       # Transaction distribution
system.tol2bus.trans_dist::SCUpgradeFailReq          190                       # Transaction distribution
system.tol2bus.trans_dist::UpgradeFailResp          190                       # Transaction distribution
system.tol2bus.trans_dist::ReadExReq           500074                       # Transaction distribution
system.tol2bus.trans_dist::ReadExResp          500074                       # Transaction distribution
system.tol2bus.trans_dist::ReadCleanReq        424811                       # Transaction distribution
system.tol2bus.trans_dist::ReadSharedReq     30221289                       # Transaction distribution
system.tol2bus.trans_dist::InvalidateReq         1980                       # Transaction distribution
system.tol2bus.trans_dist::InvalidateResp         1980                       # Transaction distribution
system.tol2bus.pkt_count_system.cpu0.icache.mem_side::system.l2.cpu_side      1222181                       # Packet count per connected master and slave (bytes)
system.tol2bus.pkt_count_system.cpu0.dcache.mem_side::system.l2.cpu_side     28771341                       # Packet count per connected master and slave (bytes)
system.tol2bus.pkt_count_system.cpu1.icache.mem_side::system.l2.cpu_side        17484                       # Packet count per connected master and slave (bytes)
system.tol2bus.pkt_count_system.cpu1.dcache.mem_side::system.l2.cpu_side     23904210                       # Packet count per connected master and slave (bytes)
system.tol2bus.pkt_count_system.cpu2.icache.mem_side::system.l2.cpu_side        17367                       # Packet count per connected master and slave (bytes)
system.tol2bus.pkt_count_system.cpu2.dcache.mem_side::system.l2.cpu_side     20850040                       # Packet count per connected master and slave (bytes)
system.tol2bus.pkt_count_system.cpu3.icache.mem_side::system.l2.cpu_side        17397                       # Packet count per connected master and slave (bytes)
system.tol2bus.pkt_count_system.cpu3.dcache.mem_side::system.l2.cpu_side     18628253                       # Packet count per connected master and slave (bytes)
system.tol2bus.pkt_count::total              93428273                       # Packet count per connected master and slave (bytes)
system.tol2bus.pkt_size_system.cpu0.icache.mem_side::system.l2.cpu_side     52146304                       # Cumulative packet size per connected master and slave (bytes)
system.tol2bus.pkt_size_system.cpu0.dcache.mem_side::system.l2.cpu_side   1226554176                       # Cumulative packet size per connected master and slave (bytes)
system.tol2bus.pkt_size_system.cpu1.icache.mem_side::system.l2.cpu_side       745984                       # Cumulative packet size per connected master and slave (bytes)
system.tol2bus.pkt_size_system.cpu1.dcache.mem_side::system.l2.cpu_side   1018813248                       # Cumulative packet size per connected master and slave (bytes)
system.tol2bus.pkt_size_system.cpu2.icache.mem_side::system.l2.cpu_side       740992                       # Cumulative packet size per connected master and slave (bytes)
system.tol2bus.pkt_size_system.cpu2.dcache.mem_side::system.l2.cpu_side    888638528                       # Cumulative packet size per connected master and slave (bytes)
system.tol2bus.pkt_size_system.cpu3.icache.mem_side::system.l2.cpu_side       742272                       # Cumulative packet size per connected master and slave (bytes)
system.tol2bus.pkt_size_system.cpu3.dcache.mem_side::system.l2.cpu_side    793876352                       # Cumulative packet size per connected master and slave (bytes)
system.tol2bus.pkt_size::total             3982257856                       # Cumulative packet size per connected master and slave (bytes)
system.tol2bus.snoops                       165226866                       # Total snoops (count)
system.tol2bus.snoopTraffic                 333298048                       # Total snoop traffic (bytes)
system.tol2bus.snoop_fanout::samples        197584342                       # Request fanout histogram
system.tol2bus.snoop_fanout::mean            0.169487                       # Request fanout histogram
system.tol2bus.snoop_fanout::stdev           0.466690                       # Request fanout histogram
system.tol2bus.snoop_fanout::underflows             0      0.00%      0.00% # Request fanout histogram
system.tol2bus.snoop_fanout::0              168659058     85.36%     85.36% # Request fanout histogram
system.tol2bus.snoop_fanout::1               26704811     13.52%     98.88% # Request fanout histogram
system.tol2bus.snoop_fanout::2                 584058      0.30%     99.17% # Request fanout histogram
system.tol2bus.snoop_fanout::3                 930588      0.47%     99.64% # Request fanout histogram
system.tol2bus.snoop_fanout::4                 705826      0.36%    100.00% # Request fanout histogram
system.tol2bus.snoop_fanout::5                      1      0.00%    100.00% # Request fanout histogram
system.tol2bus.snoop_fanout::6                      0      0.00%    100.00% # Request fanout histogram
system.tol2bus.snoop_fanout::7                      0      0.00%    100.00% # Request fanout histogram
system.tol2bus.snoop_fanout::8                      0      0.00%    100.00% # Request fanout histogram
system.tol2bus.snoop_fanout::overflows              0      0.00%    100.00% # Request fanout histogram
system.tol2bus.snoop_fanout::min_value              0                       # Request fanout histogram
system.tol2bus.snoop_fanout::max_value              5                       # Request fanout histogram
system.tol2bus.snoop_fanout::total          197584342                       # Request fanout histogram
system.tol2bus.reqLayer0.occupancy        64285313658                       # Layer occupancy (ticks)
system.tol2bus.reqLayer0.utilization              9.6                       # Layer utilization (%)
system.tol2bus.respLayer5.occupancy       10447340623                       # Layer occupancy (ticks)
system.tol2bus.respLayer5.utilization             1.6                       # Layer utilization (%)
system.tol2bus.respLayer4.occupancy           8985750                       # Layer occupancy (ticks)
system.tol2bus.respLayer4.utilization             0.0                       # Layer utilization (%)
system.tol2bus.respLayer7.occupancy        9335117872                       # Layer occupancy (ticks)
system.tol2bus.respLayer7.utilization             1.4                       # Layer utilization (%)
system.tol2bus.respLayer6.occupancy           8955892                       # Layer occupancy (ticks)
system.tol2bus.respLayer6.utilization             0.0                       # Layer utilization (%)
system.tol2bus.respLayer1.occupancy       14407849486                       # Layer occupancy (ticks)
system.tol2bus.respLayer1.utilization             2.2                       # Layer utilization (%)
system.tol2bus.respLayer0.occupancy         611275123                       # Layer occupancy (ticks)
system.tol2bus.respLayer0.utilization             0.1                       # Layer utilization (%)
system.tol2bus.respLayer3.occupancy       11970444153                       # Layer occupancy (ticks)
system.tol2bus.respLayer3.utilization             1.8                       # Layer utilization (%)
system.tol2bus.respLayer2.occupancy           9020285                       # Layer occupancy (ticks)
system.tol2bus.respLayer2.utilization             0.0                       # Layer utilization (%)
system.tol2bus.snoopLayer0.occupancy            43518                       # Layer occupancy (ticks)
system.tol2bus.snoopLayer0.utilization            0.0                       # Layer utilization (%)

---------- End Simulation Statistics   ----------
