
---------- Begin Simulation Statistics ----------
final_tick                               1268035229000                       # Number of ticks from beginning of simulation (restored from checkpoints and never reset)
host_inst_rate                                 108404                       # Simulator instruction rate (inst/s)
host_mem_usage                                 703352                       # Number of bytes of host memory used
host_op_rate                                   108721                       # Simulator op (including micro ops) rate (op/s)
host_seconds                                 13253.01                       # Real time elapsed on the host
host_tick_rate                               95679069                       # Simulator tick rate (ticks/s)
sim_freq                                 1000000000000                       # Frequency of simulated ticks
sim_insts                                  1436672743                       # Number of instructions simulated
sim_ops                                    1440876496                       # Number of ops (including micro ops) simulated
sim_seconds                                  1.268035                       # Number of seconds simulated
sim_ticks                                1268035229000                       # Number of ticks simulated
system.cpu0.branchPred.BTBCorrect                   0                       # Number of correct BTB predictions (this stat may not work properly.
system.cpu0.branchPred.BTBHitPct            87.662110                       # BTB Hit Percentage
system.cpu0.branchPred.BTBHits              183416699                       # Number of BTB hits
system.cpu0.branchPred.BTBLookups           209231445                       # Number of BTB lookups
system.cpu0.branchPred.RASInCorrect                 0                       # Number of incorrect RAS predictions.
system.cpu0.branchPred.condIncorrect         17032963                       # Number of conditional branches incorrect
system.cpu0.branchPred.condPredicted        286754188                       # Number of conditional branches predicted
system.cpu0.branchPred.indirectHits          22048324                       # Number of indirect target hits.
system.cpu0.branchPred.indirectLookups       23578355                       # Number of indirect predictor lookups.
system.cpu0.branchPred.indirectMisses         1530031                       # Number of indirect misses.
system.cpu0.branchPred.lookups              361018547                       # Number of BP lookups
system.cpu0.branchPred.usedRAS                      0                       # Number of times the RAS was used to get a target.
system.cpu0.branchPredindirectMispredicted      2194519                       # Number of mispredicted indirect branches.
system.cpu0.commit.amos                       2100268                       # Number of atomic instructions committed
system.cpu0.commit.branchMispredicts         10713217                       # The number of times a branch was mispredicted
system.cpu0.commit.branches                 329548902                       # Number of branches committed
system.cpu0.commit.bw_lim_events             33900695                       # number cycles where commit BW limit reached
system.cpu0.commit.commitNonSpecStalls        6309731                       # The number of times commit has been forced to stall to communicate backwards
system.cpu0.commit.commitSquashedInsts      116909114                       # The number of squashed insts skipped by commit
system.cpu0.commit.committedInsts          1316566138                       # Number of instructions committed
system.cpu0.commit.committedOps            1318669711                       # Number of ops (including micro ops) committed
system.cpu0.commit.committed_per_cycle::samples   2355019953                       # Number of insts commited each cycle
system.cpu0.commit.committed_per_cycle::mean     0.559940                       # Number of insts commited each cycle
system.cpu0.commit.committed_per_cycle::stdev     1.298584                       # Number of insts commited each cycle
system.cpu0.commit.committed_per_cycle::underflows            0      0.00%      0.00% # Number of insts commited each cycle
system.cpu0.commit.committed_per_cycle::0   1707213974     72.49%     72.49% # Number of insts commited each cycle
system.cpu0.commit.committed_per_cycle::1    380437621     16.15%     88.65% # Number of insts commited each cycle
system.cpu0.commit.committed_per_cycle::2    100811283      4.28%     92.93% # Number of insts commited each cycle
system.cpu0.commit.committed_per_cycle::3     93470504      3.97%     96.90% # Number of insts commited each cycle
system.cpu0.commit.committed_per_cycle::4     23521110      1.00%     97.90% # Number of insts commited each cycle
system.cpu0.commit.committed_per_cycle::5      7454556      0.32%     98.21% # Number of insts commited each cycle
system.cpu0.commit.committed_per_cycle::6      3836238      0.16%     98.37% # Number of insts commited each cycle
system.cpu0.commit.committed_per_cycle::7      4373972      0.19%     98.56% # Number of insts commited each cycle
system.cpu0.commit.committed_per_cycle::8     33900695      1.44%    100.00% # Number of insts commited each cycle
system.cpu0.commit.committed_per_cycle::overflows            0      0.00%    100.00% # Number of insts commited each cycle
system.cpu0.commit.committed_per_cycle::min_value            0                       # Number of insts commited each cycle
system.cpu0.commit.committed_per_cycle::max_value            8                       # Number of insts commited each cycle
system.cpu0.commit.committed_per_cycle::total   2355019953                       # Number of insts commited each cycle
system.cpu0.commit.fp_insts                        50                       # Number of committed floating point instructions.
system.cpu0.commit.function_calls            25143877                       # Number of function calls committed.
system.cpu0.commit.int_insts               1273937509                       # Number of committed integer instructions.
system.cpu0.commit.loads                    405173439                       # Number of loads committed
system.cpu0.commit.membars                    4203728                       # Number of memory barriers committed
system.cpu0.commit.op_class_0::No_OpClass      4203734      0.32%      0.32% # Class of committed instruction
system.cpu0.commit.op_class_0::IntAlu       742074314     56.27%     56.59% # Class of committed instruction
system.cpu0.commit.op_class_0::IntMult       11831786      0.90%     57.49% # Class of committed instruction
system.cpu0.commit.op_class_0::IntDiv         2099835      0.16%     57.65% # Class of committed instruction
system.cpu0.commit.op_class_0::FloatAdd             0      0.00%     57.65% # Class of committed instruction
system.cpu0.commit.op_class_0::FloatCmp             4      0.00%     57.65% # Class of committed instruction
system.cpu0.commit.op_class_0::FloatCvt            12      0.00%     57.65% # Class of committed instruction
system.cpu0.commit.op_class_0::FloatMult            0      0.00%     57.65% # Class of committed instruction
system.cpu0.commit.op_class_0::FloatMultAcc            0      0.00%     57.65% # Class of committed instruction
system.cpu0.commit.op_class_0::FloatDiv             2      0.00%     57.65% # Class of committed instruction
system.cpu0.commit.op_class_0::FloatMisc            4      0.00%     57.65% # Class of committed instruction
system.cpu0.commit.op_class_0::FloatSqrt            0      0.00%     57.65% # Class of committed instruction
system.cpu0.commit.op_class_0::SimdAdd              0      0.00%     57.65% # Class of committed instruction
system.cpu0.commit.op_class_0::SimdAddAcc            0      0.00%     57.65% # Class of committed instruction
system.cpu0.commit.op_class_0::SimdAlu              0      0.00%     57.65% # Class of committed instruction
system.cpu0.commit.op_class_0::SimdCmp              0      0.00%     57.65% # Class of committed instruction
system.cpu0.commit.op_class_0::SimdCvt              0      0.00%     57.65% # Class of committed instruction
system.cpu0.commit.op_class_0::SimdMisc             0      0.00%     57.65% # Class of committed instruction
system.cpu0.commit.op_class_0::SimdMult             0      0.00%     57.65% # Class of committed instruction
system.cpu0.commit.op_class_0::SimdMultAcc            0      0.00%     57.65% # Class of committed instruction
system.cpu0.commit.op_class_0::SimdShift            0      0.00%     57.65% # Class of committed instruction
system.cpu0.commit.op_class_0::SimdShiftAcc            0      0.00%     57.65% # Class of committed instruction
system.cpu0.commit.op_class_0::SimdDiv              0      0.00%     57.65% # Class of committed instruction
system.cpu0.commit.op_class_0::SimdSqrt             0      0.00%     57.65% # Class of committed instruction
system.cpu0.commit.op_class_0::SimdFloatAdd            0      0.00%     57.65% # Class of committed instruction
system.cpu0.commit.op_class_0::SimdFloatAlu            0      0.00%     57.65% # Class of committed instruction
system.cpu0.commit.op_class_0::SimdFloatCmp            0      0.00%     57.65% # Class of committed instruction
system.cpu0.commit.op_class_0::SimdFloatCvt            0      0.00%     57.65% # Class of committed instruction
system.cpu0.commit.op_class_0::SimdFloatDiv            0      0.00%     57.65% # Class of committed instruction
system.cpu0.commit.op_class_0::SimdFloatMisc            0      0.00%     57.65% # Class of committed instruction
system.cpu0.commit.op_class_0::SimdFloatMult            0      0.00%     57.65% # Class of committed instruction
system.cpu0.commit.op_class_0::SimdFloatMultAcc            0      0.00%     57.65% # Class of committed instruction
system.cpu0.commit.op_class_0::SimdFloatSqrt            0      0.00%     57.65% # Class of committed instruction
system.cpu0.commit.op_class_0::SimdReduceAdd            0      0.00%     57.65% # Class of committed instruction
system.cpu0.commit.op_class_0::SimdReduceAlu            0      0.00%     57.65% # Class of committed instruction
system.cpu0.commit.op_class_0::SimdReduceCmp            0      0.00%     57.65% # Class of committed instruction
system.cpu0.commit.op_class_0::SimdFloatReduceAdd            0      0.00%     57.65% # Class of committed instruction
system.cpu0.commit.op_class_0::SimdFloatReduceCmp            0      0.00%     57.65% # Class of committed instruction
system.cpu0.commit.op_class_0::SimdAes              0      0.00%     57.65% # Class of committed instruction
system.cpu0.commit.op_class_0::SimdAesMix            0      0.00%     57.65% # Class of committed instruction
system.cpu0.commit.op_class_0::SimdSha1Hash            0      0.00%     57.65% # Class of committed instruction
system.cpu0.commit.op_class_0::SimdSha1Hash2            0      0.00%     57.65% # Class of committed instruction
system.cpu0.commit.op_class_0::SimdSha256Hash            0      0.00%     57.65% # Class of committed instruction
system.cpu0.commit.op_class_0::SimdSha256Hash2            0      0.00%     57.65% # Class of committed instruction
system.cpu0.commit.op_class_0::SimdShaSigma2            0      0.00%     57.65% # Class of committed instruction
system.cpu0.commit.op_class_0::SimdShaSigma3            0      0.00%     57.65% # Class of committed instruction
system.cpu0.commit.op_class_0::SimdPredAlu            0      0.00%     57.65% # Class of committed instruction
system.cpu0.commit.op_class_0::MemRead      407273699     30.89%     88.53% # Class of committed instruction
system.cpu0.commit.op_class_0::MemWrite     151186293     11.47%    100.00% # Class of committed instruction
system.cpu0.commit.op_class_0::FloatMemRead            8      0.00%    100.00% # Class of committed instruction
system.cpu0.commit.op_class_0::FloatMemWrite           20      0.00%    100.00% # Class of committed instruction
system.cpu0.commit.op_class_0::IprAccess            0      0.00%    100.00% # Class of committed instruction
system.cpu0.commit.op_class_0::InstPrefetch            0      0.00%    100.00% # Class of committed instruction
system.cpu0.commit.op_class_0::total       1318669711                       # Class of committed instruction
system.cpu0.commit.refs                     558460020                       # Number of memory references committed
system.cpu0.commit.swp_count                        0                       # Number of s/w prefetches committed
system.cpu0.commit.vec_insts                        0                       # Number of committed Vector instructions.
system.cpu0.committedInsts                 1316566138                       # Number of Instructions Simulated
system.cpu0.committedOps                   1318669711                       # Number of Ops (including micro ops) Simulated
system.cpu0.cpi                              1.922865                       # CPI: Cycles Per Instruction
system.cpu0.cpi_total                        1.922865                       # CPI: Total CPI of All Threads
system.cpu0.decode.BlockedCycles            377277054                       # Number of cycles decode is blocked
system.cpu0.decode.BranchMispred              6389069                       # Number of times decode detected a branch misprediction
system.cpu0.decode.BranchResolved           180546259                       # Number of times decode resolved a branch
system.cpu0.decode.DecodedInsts            1467970256                       # Number of instructions handled by decode
system.cpu0.decode.IdleCycles               986644651                       # Number of cycles decode is idle
system.cpu0.decode.RunCycles                996069941                       # Number of cycles decode is running
system.cpu0.decode.SquashCycles              10726831                       # Number of cycles decode is squashing
system.cpu0.decode.SquashedInsts             14122864                       # Number of squashed instructions handled by decode
system.cpu0.decode.UnblockCycles              6104403                       # Number of cycles decode is unblocking
system.cpu0.dtb.accesses                            0                       # DTB accesses
system.cpu0.dtb.hits                                0                       # DTB hits
system.cpu0.dtb.misses                              0                       # DTB misses
system.cpu0.dtb.read_accesses                       0                       # DTB read accesses
system.cpu0.dtb.read_hits                           0                       # DTB read hits
system.cpu0.dtb.read_misses                         0                       # DTB read misses
system.cpu0.dtb.write_accesses                      0                       # DTB write accesses
system.cpu0.dtb.write_hits                          0                       # DTB write hits
system.cpu0.dtb.write_misses                        0                       # DTB write misses
system.cpu0.fetch.Branches                  361018547                       # Number of branches that fetch encountered
system.cpu0.fetch.CacheLines                264866835                       # Number of cache lines fetched
system.cpu0.fetch.Cycles                   1396784617                       # Number of cycles fetch has run and was not squashing or blocked
system.cpu0.fetch.IcacheSquashes              4217277                       # Number of outstanding Icache misses that were squashed
system.cpu0.fetch.IcacheWaitRetryStallCycles           66                       # Number of stall cycles due to full MSHR
system.cpu0.fetch.Insts                    1506969826                       # Number of instructions fetch has processed
system.cpu0.fetch.MiscStallCycles                   8                       # Number of cycles fetch has spent waiting on interrupts, or bad addresses, or out of MSHRs
system.cpu0.fetch.SquashCycles               34093154                       # Number of cycles fetch has spent squashing
system.cpu0.fetch.branchRate                 0.142606                       # Number of branch fetches per cycle
system.cpu0.fetch.icacheStallCycles         962991612                       # Number of cycles fetch is stalled on an Icache miss
system.cpu0.fetch.predictedBranches         205465023                       # Number of branches that fetch has predicted taken
system.cpu0.fetch.rate                       0.595269                       # Number of inst fetches per cycle
system.cpu0.fetch.rateDist::samples        2376822880                       # Number of instructions fetched each cycle (Total)
system.cpu0.fetch.rateDist::mean             0.636991                       # Number of instructions fetched each cycle (Total)
system.cpu0.fetch.rateDist::stdev            0.922971                       # Number of instructions fetched each cycle (Total)
system.cpu0.fetch.rateDist::underflows              0      0.00%      0.00% # Number of instructions fetched each cycle (Total)
system.cpu0.fetch.rateDist::0              1330576893     55.98%     55.98% # Number of instructions fetched each cycle (Total)
system.cpu0.fetch.rateDist::1               763643707     32.13%     88.11% # Number of instructions fetched each cycle (Total)
system.cpu0.fetch.rateDist::2               146090150      6.15%     94.26% # Number of instructions fetched each cycle (Total)
system.cpu0.fetch.rateDist::3               110001870      4.63%     98.88% # Number of instructions fetched each cycle (Total)
system.cpu0.fetch.rateDist::4                13993444      0.59%     99.47% # Number of instructions fetched each cycle (Total)
system.cpu0.fetch.rateDist::5                 7100767      0.30%     99.77% # Number of instructions fetched each cycle (Total)
system.cpu0.fetch.rateDist::6                 1208448      0.05%     99.82% # Number of instructions fetched each cycle (Total)
system.cpu0.fetch.rateDist::7                 4203675      0.18%    100.00% # Number of instructions fetched each cycle (Total)
system.cpu0.fetch.rateDist::8                    3926      0.00%    100.00% # Number of instructions fetched each cycle (Total)
system.cpu0.fetch.rateDist::overflows               0      0.00%    100.00% # Number of instructions fetched each cycle (Total)
system.cpu0.fetch.rateDist::min_value               0                       # Number of instructions fetched each cycle (Total)
system.cpu0.fetch.rateDist::max_value               8                       # Number of instructions fetched each cycle (Total)
system.cpu0.fetch.rateDist::total          2376822880                       # Number of instructions fetched each cycle (Total)
system.cpu0.fp_regfile_reads                       44                       # number of floating regfile reads
system.cpu0.fp_regfile_writes                      23                       # number of floating regfile writes
system.cpu0.idleCycles                      154756551                       # Total number of cycles that the CPU has spent unscheduled due to idling
system.cpu0.iew.branchMispredicts            10824406                       # Number of branch mispredicts detected at execute
system.cpu0.iew.exec_branches               340951970                       # Number of branches executed
system.cpu0.iew.exec_nop                            0                       # number of nop insts executed
system.cpu0.iew.exec_rate                    0.545636                       # Inst execution rate
system.cpu0.iew.exec_refs                   588156182                       # number of memory reference insts executed
system.cpu0.iew.exec_stores                 158285150                       # Number of stores executed
system.cpu0.iew.exec_swp                            0                       # number of swp insts executed
system.cpu0.iew.iewBlockCycles              307389964                       # Number of cycles IEW is blocking
system.cpu0.iew.iewDispLoadInsts            445256759                       # Number of dispatched load instructions
system.cpu0.iew.iewDispNonSpecInsts           4845699                       # Number of dispatched non-speculative instructions
system.cpu0.iew.iewDispSquashedInsts          3069691                       # Number of squashed instructions skipped by dispatch
system.cpu0.iew.iewDispStoreInsts           166252516                       # Number of dispatched store instructions
system.cpu0.iew.iewDispatchedInsts         1435496466                       # Number of instructions dispatched to IQ
system.cpu0.iew.iewExecLoadInsts            429871032                       # Number of load instructions executed
system.cpu0.iew.iewExecSquashedInsts         10135345                       # Number of squashed instructions skipped in execute
system.cpu0.iew.iewExecutedInsts           1381320612                       # Number of executed instructions
system.cpu0.iew.iewIQFullEvents               1746470                       # Number of times the IQ has become full, causing a stall
system.cpu0.iew.iewIdleCycles                       0                       # Number of cycles IEW is idle
system.cpu0.iew.iewLSQFullEvents             13889555                       # Number of times the LSQ has become full, causing a stall
system.cpu0.iew.iewSquashCycles              10726831                       # Number of cycles IEW is squashing
system.cpu0.iew.iewUnblockCycles             17699206                       # Number of cycles IEW is unblocking
system.cpu0.iew.lsq.thread0.blockedLoads            0                       # Number of blocked loads due to partial load-store forwarding
system.cpu0.iew.lsq.thread0.cacheBlocked       160550                       # Number of times an access to memory failed due to the cache being blocked
system.cpu0.iew.lsq.thread0.forwLoads        20712185                       # Number of loads that had data forwarded from stores
system.cpu0.iew.lsq.thread0.ignoredResponses        25225                       # Number of memory responses ignored because the instruction is squashed
system.cpu0.iew.lsq.thread0.invAddrLoads            0                       # Number of loads ignored due to an invalid address
system.cpu0.iew.lsq.thread0.invAddrSwpfs            0                       # Number of software prefetches ignored due to an invalid address
system.cpu0.iew.lsq.thread0.memOrderViolation        13034                       # Number of memory ordering violations
system.cpu0.iew.lsq.thread0.rescheduledLoads      4712169                       # Number of loads that were rescheduled
system.cpu0.iew.lsq.thread0.squashedLoads     40083320                       # Number of loads squashed
system.cpu0.iew.lsq.thread0.squashedStores     12965935                       # Number of stores squashed
system.cpu0.iew.memOrderViolationEvents         13034                       # Number of memory order violations
system.cpu0.iew.predictedNotTakenIncorrect      1338883                       # Number of branches that were predicted not taken incorrectly
system.cpu0.iew.predictedTakenIncorrect       9485523                       # Number of branches that were predicted taken incorrectly
system.cpu0.iew.wb_consumers                579510222                       # num instructions consuming a value
system.cpu0.iew.wb_count                   1370027041                       # cumulative count of insts written-back
system.cpu0.iew.wb_fanout                    0.902763                       # average fanout of values written-back
system.cpu0.iew.wb_producers                523160603                       # num instructions producing a value
system.cpu0.iew.wb_rate                      0.541175                       # insts written-back per cycle
system.cpu0.iew.wb_sent                    1370107928                       # cumulative count of insts sent to commit
system.cpu0.int_regfile_reads              1697898230                       # number of integer regfile reads
system.cpu0.int_regfile_writes              880920433                       # number of integer regfile writes
system.cpu0.ipc                              0.520057                       # IPC: Instructions Per Cycle
system.cpu0.ipc_total                        0.520057                       # IPC: Total IPC of All Threads
system.cpu0.iq.FU_type_0::No_OpClass          4205634      0.30%      0.30% # Type of FU issued
system.cpu0.iq.FU_type_0::IntAlu            780671923     56.10%     56.41% # Type of FU issued
system.cpu0.iq.FU_type_0::IntMult            11834090      0.85%     57.26% # Type of FU issued
system.cpu0.iq.FU_type_0::IntDiv              2100425      0.15%     57.41% # Type of FU issued
system.cpu0.iq.FU_type_0::FloatAdd                  0      0.00%     57.41% # Type of FU issued
system.cpu0.iq.FU_type_0::FloatCmp                  4      0.00%     57.41% # Type of FU issued
system.cpu0.iq.FU_type_0::FloatCvt                 12      0.00%     57.41% # Type of FU issued
system.cpu0.iq.FU_type_0::FloatMult                 0      0.00%     57.41% # Type of FU issued
system.cpu0.iq.FU_type_0::FloatMultAcc              0      0.00%     57.41% # Type of FU issued
system.cpu0.iq.FU_type_0::FloatDiv                  2      0.00%     57.41% # Type of FU issued
system.cpu0.iq.FU_type_0::FloatMisc                 4      0.00%     57.41% # Type of FU issued
system.cpu0.iq.FU_type_0::FloatSqrt                 0      0.00%     57.41% # Type of FU issued
system.cpu0.iq.FU_type_0::SimdAdd                   0      0.00%     57.41% # Type of FU issued
system.cpu0.iq.FU_type_0::SimdAddAcc                0      0.00%     57.41% # Type of FU issued
system.cpu0.iq.FU_type_0::SimdAlu                   0      0.00%     57.41% # Type of FU issued
system.cpu0.iq.FU_type_0::SimdCmp                   0      0.00%     57.41% # Type of FU issued
system.cpu0.iq.FU_type_0::SimdCvt                   0      0.00%     57.41% # Type of FU issued
system.cpu0.iq.FU_type_0::SimdMisc                  0      0.00%     57.41% # Type of FU issued
system.cpu0.iq.FU_type_0::SimdMult                  0      0.00%     57.41% # Type of FU issued
system.cpu0.iq.FU_type_0::SimdMultAcc               0      0.00%     57.41% # Type of FU issued
system.cpu0.iq.FU_type_0::SimdShift                 0      0.00%     57.41% # Type of FU issued
system.cpu0.iq.FU_type_0::SimdShiftAcc              0      0.00%     57.41% # Type of FU issued
system.cpu0.iq.FU_type_0::SimdDiv                   0      0.00%     57.41% # Type of FU issued
system.cpu0.iq.FU_type_0::SimdSqrt                  0      0.00%     57.41% # Type of FU issued
system.cpu0.iq.FU_type_0::SimdFloatAdd              0      0.00%     57.41% # Type of FU issued
system.cpu0.iq.FU_type_0::SimdFloatAlu              0      0.00%     57.41% # Type of FU issued
system.cpu0.iq.FU_type_0::SimdFloatCmp              0      0.00%     57.41% # Type of FU issued
system.cpu0.iq.FU_type_0::SimdFloatCvt              0      0.00%     57.41% # Type of FU issued
system.cpu0.iq.FU_type_0::SimdFloatDiv              0      0.00%     57.41% # Type of FU issued
system.cpu0.iq.FU_type_0::SimdFloatMisc             0      0.00%     57.41% # Type of FU issued
system.cpu0.iq.FU_type_0::SimdFloatMult             0      0.00%     57.41% # Type of FU issued
system.cpu0.iq.FU_type_0::SimdFloatMultAcc            0      0.00%     57.41% # Type of FU issued
system.cpu0.iq.FU_type_0::SimdFloatSqrt             0      0.00%     57.41% # Type of FU issued
system.cpu0.iq.FU_type_0::SimdReduceAdd             0      0.00%     57.41% # Type of FU issued
system.cpu0.iq.FU_type_0::SimdReduceAlu             0      0.00%     57.41% # Type of FU issued
system.cpu0.iq.FU_type_0::SimdReduceCmp             0      0.00%     57.41% # Type of FU issued
system.cpu0.iq.FU_type_0::SimdFloatReduceAdd            0      0.00%     57.41% # Type of FU issued
system.cpu0.iq.FU_type_0::SimdFloatReduceCmp            0      0.00%     57.41% # Type of FU issued
system.cpu0.iq.FU_type_0::SimdAes                   0      0.00%     57.41% # Type of FU issued
system.cpu0.iq.FU_type_0::SimdAesMix                0      0.00%     57.41% # Type of FU issued
system.cpu0.iq.FU_type_0::SimdSha1Hash              0      0.00%     57.41% # Type of FU issued
system.cpu0.iq.FU_type_0::SimdSha1Hash2             0      0.00%     57.41% # Type of FU issued
system.cpu0.iq.FU_type_0::SimdSha256Hash            0      0.00%     57.41% # Type of FU issued
system.cpu0.iq.FU_type_0::SimdSha256Hash2            0      0.00%     57.41% # Type of FU issued
system.cpu0.iq.FU_type_0::SimdShaSigma2             0      0.00%     57.41% # Type of FU issued
system.cpu0.iq.FU_type_0::SimdShaSigma3             0      0.00%     57.41% # Type of FU issued
system.cpu0.iq.FU_type_0::SimdPredAlu               0      0.00%     57.41% # Type of FU issued
system.cpu0.iq.FU_type_0::MemRead           434658841     31.24%     88.65% # Type of FU issued
system.cpu0.iq.FU_type_0::MemWrite          157984994     11.35%    100.00% # Type of FU issued
system.cpu0.iq.FU_type_0::FloatMemRead              9      0.00%    100.00% # Type of FU issued
system.cpu0.iq.FU_type_0::FloatMemWrite            20      0.00%    100.00% # Type of FU issued
system.cpu0.iq.FU_type_0::IprAccess                 0      0.00%    100.00% # Type of FU issued
system.cpu0.iq.FU_type_0::InstPrefetch              0      0.00%    100.00% # Type of FU issued
system.cpu0.iq.FU_type_0::total            1391455958                       # Type of FU issued
system.cpu0.iq.fp_alu_accesses                     53                       # Number of floating point alu accesses
system.cpu0.iq.fp_inst_queue_reads                104                       # Number of floating instruction queue reads
system.cpu0.iq.fp_inst_queue_wakeup_accesses           51                       # Number of floating instruction queue wakeup accesses
system.cpu0.iq.fp_inst_queue_writes                60                       # Number of floating instruction queue writes
system.cpu0.iq.fu_busy_cnt                    2832020                       # FU busy when requested
system.cpu0.iq.fu_busy_rate                  0.002035                       # FU busy rate (busy events/executed inst)
system.cpu0.iq.fu_full::No_OpClass                  0      0.00%      0.00% # attempts to use FU when none available
system.cpu0.iq.fu_full::IntAlu                 426689     15.07%     15.07% # attempts to use FU when none available
system.cpu0.iq.fu_full::IntMult                     0      0.00%     15.07% # attempts to use FU when none available
system.cpu0.iq.fu_full::IntDiv                      0      0.00%     15.07% # attempts to use FU when none available
system.cpu0.iq.fu_full::FloatAdd                    0      0.00%     15.07% # attempts to use FU when none available
system.cpu0.iq.fu_full::FloatCmp                    0      0.00%     15.07% # attempts to use FU when none available
system.cpu0.iq.fu_full::FloatCvt                    0      0.00%     15.07% # attempts to use FU when none available
system.cpu0.iq.fu_full::FloatMult                   0      0.00%     15.07% # attempts to use FU when none available
system.cpu0.iq.fu_full::FloatMultAcc                0      0.00%     15.07% # attempts to use FU when none available
system.cpu0.iq.fu_full::FloatDiv                    0      0.00%     15.07% # attempts to use FU when none available
system.cpu0.iq.fu_full::FloatMisc                   0      0.00%     15.07% # attempts to use FU when none available
system.cpu0.iq.fu_full::FloatSqrt                   0      0.00%     15.07% # attempts to use FU when none available
system.cpu0.iq.fu_full::SimdAdd                     0      0.00%     15.07% # attempts to use FU when none available
system.cpu0.iq.fu_full::SimdAddAcc                  0      0.00%     15.07% # attempts to use FU when none available
system.cpu0.iq.fu_full::SimdAlu                     0      0.00%     15.07% # attempts to use FU when none available
system.cpu0.iq.fu_full::SimdCmp                     0      0.00%     15.07% # attempts to use FU when none available
system.cpu0.iq.fu_full::SimdCvt                     0      0.00%     15.07% # attempts to use FU when none available
system.cpu0.iq.fu_full::SimdMisc                    0      0.00%     15.07% # attempts to use FU when none available
system.cpu0.iq.fu_full::SimdMult                    0      0.00%     15.07% # attempts to use FU when none available
system.cpu0.iq.fu_full::SimdMultAcc                 0      0.00%     15.07% # attempts to use FU when none available
system.cpu0.iq.fu_full::SimdShift                   0      0.00%     15.07% # attempts to use FU when none available
system.cpu0.iq.fu_full::SimdShiftAcc                0      0.00%     15.07% # attempts to use FU when none available
system.cpu0.iq.fu_full::SimdDiv                     0      0.00%     15.07% # attempts to use FU when none available
system.cpu0.iq.fu_full::SimdSqrt                    0      0.00%     15.07% # attempts to use FU when none available
system.cpu0.iq.fu_full::SimdFloatAdd                0      0.00%     15.07% # attempts to use FU when none available
system.cpu0.iq.fu_full::SimdFloatAlu                0      0.00%     15.07% # attempts to use FU when none available
system.cpu0.iq.fu_full::SimdFloatCmp                0      0.00%     15.07% # attempts to use FU when none available
system.cpu0.iq.fu_full::SimdFloatCvt                0      0.00%     15.07% # attempts to use FU when none available
system.cpu0.iq.fu_full::SimdFloatDiv                0      0.00%     15.07% # attempts to use FU when none available
system.cpu0.iq.fu_full::SimdFloatMisc               0      0.00%     15.07% # attempts to use FU when none available
system.cpu0.iq.fu_full::SimdFloatMult               0      0.00%     15.07% # attempts to use FU when none available
system.cpu0.iq.fu_full::SimdFloatMultAcc            0      0.00%     15.07% # attempts to use FU when none available
system.cpu0.iq.fu_full::SimdFloatSqrt               0      0.00%     15.07% # attempts to use FU when none available
system.cpu0.iq.fu_full::SimdReduceAdd               0      0.00%     15.07% # attempts to use FU when none available
system.cpu0.iq.fu_full::SimdReduceAlu               0      0.00%     15.07% # attempts to use FU when none available
system.cpu0.iq.fu_full::SimdReduceCmp               0      0.00%     15.07% # attempts to use FU when none available
system.cpu0.iq.fu_full::SimdFloatReduceAdd            0      0.00%     15.07% # attempts to use FU when none available
system.cpu0.iq.fu_full::SimdFloatReduceCmp            0      0.00%     15.07% # attempts to use FU when none available
system.cpu0.iq.fu_full::SimdAes                     0      0.00%     15.07% # attempts to use FU when none available
system.cpu0.iq.fu_full::SimdAesMix                  0      0.00%     15.07% # attempts to use FU when none available
system.cpu0.iq.fu_full::SimdSha1Hash                0      0.00%     15.07% # attempts to use FU when none available
system.cpu0.iq.fu_full::SimdSha1Hash2               0      0.00%     15.07% # attempts to use FU when none available
system.cpu0.iq.fu_full::SimdSha256Hash              0      0.00%     15.07% # attempts to use FU when none available
system.cpu0.iq.fu_full::SimdSha256Hash2             0      0.00%     15.07% # attempts to use FU when none available
system.cpu0.iq.fu_full::SimdShaSigma2               0      0.00%     15.07% # attempts to use FU when none available
system.cpu0.iq.fu_full::SimdShaSigma3               0      0.00%     15.07% # attempts to use FU when none available
system.cpu0.iq.fu_full::SimdPredAlu                 0      0.00%     15.07% # attempts to use FU when none available
system.cpu0.iq.fu_full::MemRead               2065634     72.94%     88.01% # attempts to use FU when none available
system.cpu0.iq.fu_full::MemWrite               339695     11.99%    100.00% # attempts to use FU when none available
system.cpu0.iq.fu_full::FloatMemRead                0      0.00%    100.00% # attempts to use FU when none available
system.cpu0.iq.fu_full::FloatMemWrite               2      0.00%    100.00% # attempts to use FU when none available
system.cpu0.iq.fu_full::IprAccess                   0      0.00%    100.00% # attempts to use FU when none available
system.cpu0.iq.fu_full::InstPrefetch                0      0.00%    100.00% # attempts to use FU when none available
system.cpu0.iq.int_alu_accesses            1390082291                       # Number of integer alu accesses
system.cpu0.iq.int_inst_queue_reads        5162745453                       # Number of integer instruction queue reads
system.cpu0.iq.int_inst_queue_wakeup_accesses   1370026990                       # Number of integer instruction queue wakeup accesses
system.cpu0.iq.int_inst_queue_writes       1552335554                       # Number of integer instruction queue writes
system.cpu0.iq.iqInstsAdded                1420958758                       # Number of instructions added to the IQ (excludes non-spec)
system.cpu0.iq.iqInstsIssued               1391455958                       # Number of instructions issued
system.cpu0.iq.iqNonSpecInstsAdded           14537708                       # Number of non-speculative instructions added to the IQ
system.cpu0.iq.iqSquashedInstsExamined      116826751                       # Number of squashed instructions iterated over during squash; mainly for profiling
system.cpu0.iq.iqSquashedInstsIssued           178742                       # Number of squashed instructions issued
system.cpu0.iq.iqSquashedNonSpecRemoved       8227977                       # Number of squashed non-spec instructions that were removed
system.cpu0.iq.iqSquashedOperandsExamined     65315179                       # Number of squashed operands that are examined and possibly removed from graph
system.cpu0.iq.issued_per_cycle::samples   2376822880                       # Number of insts issued each cycle
system.cpu0.iq.issued_per_cycle::mean        0.585427                       # Number of insts issued each cycle
system.cpu0.iq.issued_per_cycle::stdev       0.808404                       # Number of insts issued each cycle
system.cpu0.iq.issued_per_cycle::underflows            0      0.00%      0.00% # Number of insts issued each cycle
system.cpu0.iq.issued_per_cycle::0         1360728742     57.25%     57.25% # Number of insts issued each cycle
system.cpu0.iq.issued_per_cycle::1          723022450     30.42%     87.67% # Number of insts issued each cycle
system.cpu0.iq.issued_per_cycle::2          231514045      9.74%     97.41% # Number of insts issued each cycle
system.cpu0.iq.issued_per_cycle::3           46785530      1.97%     99.38% # Number of insts issued each cycle
system.cpu0.iq.issued_per_cycle::4           11544524      0.49%     99.86% # Number of insts issued each cycle
system.cpu0.iq.issued_per_cycle::5            1407230      0.06%     99.92% # Number of insts issued each cycle
system.cpu0.iq.issued_per_cycle::6            1134417      0.05%     99.97% # Number of insts issued each cycle
system.cpu0.iq.issued_per_cycle::7             459456      0.02%     99.99% # Number of insts issued each cycle
system.cpu0.iq.issued_per_cycle::8             226486      0.01%    100.00% # Number of insts issued each cycle
system.cpu0.iq.issued_per_cycle::overflows            0      0.00%    100.00% # Number of insts issued each cycle
system.cpu0.iq.issued_per_cycle::min_value            0                       # Number of insts issued each cycle
system.cpu0.iq.issued_per_cycle::max_value            8                       # Number of insts issued each cycle
system.cpu0.iq.issued_per_cycle::total     2376822880                       # Number of insts issued each cycle
system.cpu0.iq.rate                          0.549639                       # Inst issue rate
system.cpu0.iq.vec_alu_accesses                     0                       # Number of vector alu accesses
system.cpu0.iq.vec_inst_queue_reads                 0                       # Number of vector instruction queue reads
system.cpu0.iq.vec_inst_queue_wakeup_accesses            0                       # Number of vector instruction queue wakeup accesses
system.cpu0.iq.vec_inst_queue_writes                0                       # Number of vector instruction queue writes
system.cpu0.itb.accesses                            0                       # DTB accesses
system.cpu0.itb.hits                                0                       # DTB hits
system.cpu0.itb.misses                              0                       # DTB misses
system.cpu0.itb.read_accesses                       0                       # DTB read accesses
system.cpu0.itb.read_hits                           0                       # DTB read hits
system.cpu0.itb.read_misses                         0                       # DTB read misses
system.cpu0.itb.write_accesses                      0                       # DTB write accesses
system.cpu0.itb.write_hits                          0                       # DTB write hits
system.cpu0.itb.write_misses                        0                       # DTB write misses
system.cpu0.memDep0.conflictingLoads         33167353                       # Number of conflicting loads.
system.cpu0.memDep0.conflictingStores         4548538                       # Number of conflicting stores.
system.cpu0.memDep0.insertedLoads           445256759                       # Number of loads inserted to the mem dependence unit.
system.cpu0.memDep0.insertedStores          166252516                       # Number of stores inserted to the mem dependence unit.
system.cpu0.misc_regfile_reads                   1896                       # number of misc regfile reads
system.cpu0.misc_regfile_writes                    22                       # number of misc regfile writes
system.cpu0.numCycles                      2531579431                       # number of cpu cycles simulated
system.cpu0.numWorkItemsCompleted                   0                       # number of work items this cpu completed
system.cpu0.numWorkItemsStarted                     0                       # number of work items this cpu started
system.cpu0.quiesceCycles                     4496661                       # Total number of cycles that CPU has spent quiesced or waiting for an interrupt
system.cpu0.rename.BlockCycles              336927078                       # Number of cycles rename is blocking
system.cpu0.rename.CommittedMaps            845208020                       # Number of HB maps that are committed
system.cpu0.rename.IQFullEvents               9460063                       # Number of times rename has blocked due to IQ full
system.cpu0.rename.IdleCycles              1001395293                       # Number of cycles rename is idle
system.cpu0.rename.LQFullEvents              15550761                       # Number of times rename has blocked due to LQ full
system.cpu0.rename.ROBFullEvents                45350                       # Number of times rename has blocked due to ROB full
system.cpu0.rename.RenameLookups           1779379603                       # Number of register rename lookups that rename has made
system.cpu0.rename.RenamedInsts            1449135907                       # Number of instructions processed by rename
system.cpu0.rename.RenamedOperands          939519220                       # Number of destination operands rename has renamed
system.cpu0.rename.RunCycles                985452136                       # Number of cycles rename is running
system.cpu0.rename.SQFullEvents              15585942                       # Number of times rename has blocked due to SQ full
system.cpu0.rename.SquashCycles              10726831                       # Number of cycles rename is squashing
system.cpu0.rename.UnblockCycles             42174572                       # Number of cycles rename is unblocking
system.cpu0.rename.UndoneMaps                94311195                       # Number of HB maps that are undone due to squashing
system.cpu0.rename.fp_rename_lookups               49                       # Number of floating rename lookups
system.cpu0.rename.int_rename_lookups      1779379554                       # Number of integer rename lookups
system.cpu0.rename.serializeStallCycles        146970                       # count of cycles rename stalled for serializing inst
system.cpu0.rename.serializingInsts              5870                       # count of serializing insts renamed
system.cpu0.rename.skidInsts                 23830789                       # count of insts added to the skid buffer
system.cpu0.rename.tempSerializingInsts          5824                       # count of temporary serializing insts renamed
system.cpu0.rob.rob_reads                  3756673942                       # The number of ROB reads
system.cpu0.rob.rob_writes                 2892988500                       # The number of ROB writes
system.cpu0.timesIdled                       31009313                       # Number of times that the entire CPU went into an idle state and unscheduled itself
system.cpu0.workload.numSyscalls                 1863                       # Number of system calls
system.cpu1.branchPred.BTBCorrect                   0                       # Number of correct BTB predictions (this stat may not work properly.
system.cpu1.branchPred.BTBHitPct            89.774979                       # BTB Hit Percentage
system.cpu1.branchPred.BTBHits               20687169                       # Number of BTB hits
system.cpu1.branchPred.BTBLookups            23043357                       # Number of BTB lookups
system.cpu1.branchPred.RASInCorrect                 0                       # Number of incorrect RAS predictions.
system.cpu1.branchPred.condIncorrect          2797514                       # Number of conditional branches incorrect
system.cpu1.branchPred.condPredicted         30496672                       # Number of conditional branches predicted
system.cpu1.branchPred.indirectHits           1067455                       # Number of indirect target hits.
system.cpu1.branchPred.indirectLookups        1083030                       # Number of indirect predictor lookups.
system.cpu1.branchPred.indirectMisses           15575                       # Number of indirect misses.
system.cpu1.branchPred.lookups               35189380                       # Number of BP lookups
system.cpu1.branchPred.usedRAS                      0                       # Number of times the RAS was used to get a target.
system.cpu1.branchPredindirectMispredicted        48246                       # Number of mispredicted indirect branches.
system.cpu1.commit.amos                       2100001                       # Number of atomic instructions committed
system.cpu1.commit.branchMispredicts          1981836                       # The number of times a branch was mispredicted
system.cpu1.commit.branches                  28126674                       # Number of branches committed
system.cpu1.commit.bw_lim_events              3789801                       # number cycles where commit BW limit reached
system.cpu1.commit.commitNonSpecStalls        6300682                       # The number of times commit has been forced to stall to communicate backwards
system.cpu1.commit.commitSquashedInsts       16962457                       # The number of squashed insts skipped by commit
system.cpu1.commit.committedInsts           120106605                       # Number of instructions committed
system.cpu1.commit.committedOps             122206785                       # Number of ops (including micro ops) committed
system.cpu1.commit.committed_per_cycle::samples    442378580                       # Number of insts commited each cycle
system.cpu1.commit.committed_per_cycle::mean     0.276249                       # Number of insts commited each cycle
system.cpu1.commit.committed_per_cycle::stdev     1.037004                       # Number of insts commited each cycle
system.cpu1.commit.committed_per_cycle::underflows            0      0.00%      0.00% # Number of insts commited each cycle
system.cpu1.commit.committed_per_cycle::0    391309223     88.46%     88.46% # Number of insts commited each cycle
system.cpu1.commit.committed_per_cycle::1     25606848      5.79%     94.24% # Number of insts commited each cycle
system.cpu1.commit.committed_per_cycle::2      9571765      2.16%     96.41% # Number of insts commited each cycle
system.cpu1.commit.committed_per_cycle::3      7292045      1.65%     98.06% # Number of insts commited each cycle
system.cpu1.commit.committed_per_cycle::4      1570748      0.36%     98.41% # Number of insts commited each cycle
system.cpu1.commit.committed_per_cycle::5       779617      0.18%     98.59% # Number of insts commited each cycle
system.cpu1.commit.committed_per_cycle::6      2128944      0.48%     99.07% # Number of insts commited each cycle
system.cpu1.commit.committed_per_cycle::7       329589      0.07%     99.14% # Number of insts commited each cycle
system.cpu1.commit.committed_per_cycle::8      3789801      0.86%    100.00% # Number of insts commited each cycle
system.cpu1.commit.committed_per_cycle::overflows            0      0.00%    100.00% # Number of insts commited each cycle
system.cpu1.commit.committed_per_cycle::min_value            0                       # Number of insts commited each cycle
system.cpu1.commit.committed_per_cycle::max_value            8                       # Number of insts commited each cycle
system.cpu1.commit.committed_per_cycle::total    442378580                       # Number of insts commited each cycle
system.cpu1.commit.fp_insts                        12                       # Number of committed floating point instructions.
system.cpu1.commit.function_calls             1799077                       # Number of function calls committed.
system.cpu1.commit.int_insts                116643087                       # Number of committed integer instructions.
system.cpu1.commit.loads                     30181740                       # Number of loads committed
system.cpu1.commit.membars                    4200128                       # Number of memory barriers committed
system.cpu1.commit.op_class_0::No_OpClass      4200128      3.44%      3.44% # Class of committed instruction
system.cpu1.commit.op_class_0::IntAlu        76694408     62.76%     66.19% # Class of committed instruction
system.cpu1.commit.op_class_0::IntMult             44      0.00%     66.19% # Class of committed instruction
system.cpu1.commit.op_class_0::IntDiv              88      0.00%     66.19% # Class of committed instruction
system.cpu1.commit.op_class_0::FloatAdd             0      0.00%     66.19% # Class of committed instruction
system.cpu1.commit.op_class_0::FloatCmp             0      0.00%     66.19% # Class of committed instruction
system.cpu1.commit.op_class_0::FloatCvt             0      0.00%     66.19% # Class of committed instruction
system.cpu1.commit.op_class_0::FloatMult            0      0.00%     66.19% # Class of committed instruction
system.cpu1.commit.op_class_0::FloatMultAcc            0      0.00%     66.19% # Class of committed instruction
system.cpu1.commit.op_class_0::FloatDiv             0      0.00%     66.19% # Class of committed instruction
system.cpu1.commit.op_class_0::FloatMisc            0      0.00%     66.19% # Class of committed instruction
system.cpu1.commit.op_class_0::FloatSqrt            0      0.00%     66.19% # Class of committed instruction
system.cpu1.commit.op_class_0::SimdAdd              0      0.00%     66.19% # Class of committed instruction
system.cpu1.commit.op_class_0::SimdAddAcc            0      0.00%     66.19% # Class of committed instruction
system.cpu1.commit.op_class_0::SimdAlu              0      0.00%     66.19% # Class of committed instruction
system.cpu1.commit.op_class_0::SimdCmp              0      0.00%     66.19% # Class of committed instruction
system.cpu1.commit.op_class_0::SimdCvt              0      0.00%     66.19% # Class of committed instruction
system.cpu1.commit.op_class_0::SimdMisc             0      0.00%     66.19% # Class of committed instruction
system.cpu1.commit.op_class_0::SimdMult             0      0.00%     66.19% # Class of committed instruction
system.cpu1.commit.op_class_0::SimdMultAcc            0      0.00%     66.19% # Class of committed instruction
system.cpu1.commit.op_class_0::SimdShift            0      0.00%     66.19% # Class of committed instruction
system.cpu1.commit.op_class_0::SimdShiftAcc            0      0.00%     66.19% # Class of committed instruction
system.cpu1.commit.op_class_0::SimdDiv              0      0.00%     66.19% # Class of committed instruction
system.cpu1.commit.op_class_0::SimdSqrt             0      0.00%     66.19% # Class of committed instruction
system.cpu1.commit.op_class_0::SimdFloatAdd            0      0.00%     66.19% # Class of committed instruction
system.cpu1.commit.op_class_0::SimdFloatAlu            0      0.00%     66.19% # Class of committed instruction
system.cpu1.commit.op_class_0::SimdFloatCmp            0      0.00%     66.19% # Class of committed instruction
system.cpu1.commit.op_class_0::SimdFloatCvt            0      0.00%     66.19% # Class of committed instruction
system.cpu1.commit.op_class_0::SimdFloatDiv            0      0.00%     66.19% # Class of committed instruction
system.cpu1.commit.op_class_0::SimdFloatMisc            0      0.00%     66.19% # Class of committed instruction
system.cpu1.commit.op_class_0::SimdFloatMult            0      0.00%     66.19% # Class of committed instruction
system.cpu1.commit.op_class_0::SimdFloatMultAcc            0      0.00%     66.19% # Class of committed instruction
system.cpu1.commit.op_class_0::SimdFloatSqrt            0      0.00%     66.19% # Class of committed instruction
system.cpu1.commit.op_class_0::SimdReduceAdd            0      0.00%     66.19% # Class of committed instruction
system.cpu1.commit.op_class_0::SimdReduceAlu            0      0.00%     66.19% # Class of committed instruction
system.cpu1.commit.op_class_0::SimdReduceCmp            0      0.00%     66.19% # Class of committed instruction
system.cpu1.commit.op_class_0::SimdFloatReduceAdd            0      0.00%     66.19% # Class of committed instruction
system.cpu1.commit.op_class_0::SimdFloatReduceCmp            0      0.00%     66.19% # Class of committed instruction
system.cpu1.commit.op_class_0::SimdAes              0      0.00%     66.19% # Class of committed instruction
system.cpu1.commit.op_class_0::SimdAesMix            0      0.00%     66.19% # Class of committed instruction
system.cpu1.commit.op_class_0::SimdSha1Hash            0      0.00%     66.19% # Class of committed instruction
system.cpu1.commit.op_class_0::SimdSha1Hash2            0      0.00%     66.19% # Class of committed instruction
system.cpu1.commit.op_class_0::SimdSha256Hash            0      0.00%     66.19% # Class of committed instruction
system.cpu1.commit.op_class_0::SimdSha256Hash2            0      0.00%     66.19% # Class of committed instruction
system.cpu1.commit.op_class_0::SimdShaSigma2            0      0.00%     66.19% # Class of committed instruction
system.cpu1.commit.op_class_0::SimdShaSigma3            0      0.00%     66.19% # Class of committed instruction
system.cpu1.commit.op_class_0::SimdPredAlu            0      0.00%     66.19% # Class of committed instruction
system.cpu1.commit.op_class_0::MemRead       32281741     26.42%     92.61% # Class of committed instruction
system.cpu1.commit.op_class_0::MemWrite       9030364      7.39%    100.00% # Class of committed instruction
system.cpu1.commit.op_class_0::FloatMemRead            0      0.00%    100.00% # Class of committed instruction
system.cpu1.commit.op_class_0::FloatMemWrite           12      0.00%    100.00% # Class of committed instruction
system.cpu1.commit.op_class_0::IprAccess            0      0.00%    100.00% # Class of committed instruction
system.cpu1.commit.op_class_0::InstPrefetch            0      0.00%    100.00% # Class of committed instruction
system.cpu1.commit.op_class_0::total        122206785                       # Class of committed instruction
system.cpu1.commit.refs                      41312117                       # Number of memory references committed
system.cpu1.commit.swp_count                        0                       # Number of s/w prefetches committed
system.cpu1.commit.vec_insts                        0                       # Number of committed Vector instructions.
system.cpu1.committedInsts                  120106605                       # Number of Instructions Simulated
system.cpu1.committedOps                    122206785                       # Number of Ops (including micro ops) Simulated
system.cpu1.cpi                              3.727054                       # CPI: Cycles Per Instruction
system.cpu1.cpi_total                        3.727054                       # CPI: Total CPI of All Threads
system.cpu1.decode.BlockedCycles            344447856                       # Number of cycles decode is blocked
system.cpu1.decode.BranchMispred               865391                       # Number of times decode detected a branch misprediction
system.cpu1.decode.BranchResolved            19778704                       # Number of times decode resolved a branch
system.cpu1.decode.DecodedInsts             145722716                       # Number of instructions handled by decode
system.cpu1.decode.IdleCycles                27318899                       # Number of cycles decode is idle
system.cpu1.decode.RunCycles                 66944717                       # Number of cycles decode is running
system.cpu1.decode.SquashCycles               1983414                       # Number of cycles decode is squashing
system.cpu1.decode.SquashedInsts              2102455                       # Number of squashed instructions handled by decode
system.cpu1.decode.UnblockCycles              5141672                       # Number of cycles decode is unblocking
system.cpu1.dtb.accesses                            0                       # DTB accesses
system.cpu1.dtb.hits                                0                       # DTB hits
system.cpu1.dtb.misses                              0                       # DTB misses
system.cpu1.dtb.read_accesses                       0                       # DTB read accesses
system.cpu1.dtb.read_hits                           0                       # DTB read hits
system.cpu1.dtb.read_misses                         0                       # DTB read misses
system.cpu1.dtb.write_accesses                      0                       # DTB write accesses
system.cpu1.dtb.write_hits                          0                       # DTB write hits
system.cpu1.dtb.write_misses                        0                       # DTB write misses
system.cpu1.fetch.Branches                   35189380                       # Number of branches that fetch encountered
system.cpu1.fetch.CacheLines                 23283138                       # Number of cache lines fetched
system.cpu1.fetch.Cycles                    417768258                       # Number of cycles fetch has run and was not squashing or blocked
system.cpu1.fetch.IcacheSquashes               211918                       # Number of outstanding Icache misses that were squashed
system.cpu1.fetch.Insts                     151023403                       # Number of instructions fetch has processed
system.cpu1.fetch.MiscStallCycles                   1                       # Number of cycles fetch has spent waiting on interrupts, or bad addresses, or out of MSHRs
system.cpu1.fetch.SquashCycles                5598184                       # Number of cycles fetch has spent squashing
system.cpu1.fetch.branchRate                 0.078610                       # Number of branch fetches per cycle
system.cpu1.fetch.icacheStallCycles          25269207                       # Number of cycles fetch is stalled on an Icache miss
system.cpu1.fetch.predictedBranches          21754624                       # Number of branches that fetch has predicted taken
system.cpu1.fetch.rate                       0.337374                       # Number of inst fetches per cycle
system.cpu1.fetch.rateDist::samples         445836558                       # Number of instructions fetched each cycle (Total)
system.cpu1.fetch.rateDist::mean             0.343453                       # Number of instructions fetched each cycle (Total)
system.cpu1.fetch.rateDist::stdev            0.774443                       # Number of instructions fetched each cycle (Total)
system.cpu1.fetch.rateDist::underflows              0      0.00%      0.00% # Number of instructions fetched each cycle (Total)
system.cpu1.fetch.rateDist::0               349074692     78.30%     78.30% # Number of instructions fetched each cycle (Total)
system.cpu1.fetch.rateDist::1                61417548     13.78%     92.07% # Number of instructions fetched each cycle (Total)
system.cpu1.fetch.rateDist::2                19143303      4.29%     96.37% # Number of instructions fetched each cycle (Total)
system.cpu1.fetch.rateDist::3                12549545      2.81%     99.18% # Number of instructions fetched each cycle (Total)
system.cpu1.fetch.rateDist::4                 2553289      0.57%     99.75% # Number of instructions fetched each cycle (Total)
system.cpu1.fetch.rateDist::5                 1033750      0.23%     99.99% # Number of instructions fetched each cycle (Total)
system.cpu1.fetch.rateDist::6                   61932      0.01%    100.00% # Number of instructions fetched each cycle (Total)
system.cpu1.fetch.rateDist::7                    2368      0.00%    100.00% # Number of instructions fetched each cycle (Total)
system.cpu1.fetch.rateDist::8                     131      0.00%    100.00% # Number of instructions fetched each cycle (Total)
system.cpu1.fetch.rateDist::overflows               0      0.00%    100.00% # Number of instructions fetched each cycle (Total)
system.cpu1.fetch.rateDist::min_value               0                       # Number of instructions fetched each cycle (Total)
system.cpu1.fetch.rateDist::max_value               8                       # Number of instructions fetched each cycle (Total)
system.cpu1.fetch.rateDist::total           445836558                       # Number of instructions fetched each cycle (Total)
system.cpu1.fp_regfile_reads                       12                       # number of floating regfile reads
system.cpu1.idleCycles                        1807273                       # Total number of cycles that the CPU has spent unscheduled due to idling
system.cpu1.iew.branchMispredicts             2100308                       # Number of branch mispredicts detected at execute
system.cpu1.iew.exec_branches                30557737                       # Number of branches executed
system.cpu1.iew.exec_nop                            0                       # number of nop insts executed
system.cpu1.iew.exec_rate                    0.299322                       # Inst execution rate
system.cpu1.iew.exec_refs                    45892076                       # number of memory reference insts executed
system.cpu1.iew.exec_stores                  11558956                       # Number of stores executed
system.cpu1.iew.exec_swp                            0                       # number of swp insts executed
system.cpu1.iew.iewBlockCycles              283091963                       # Number of cycles IEW is blocking
system.cpu1.iew.iewDispLoadInsts             35107431                       # Number of dispatched load instructions
system.cpu1.iew.iewDispNonSpecInsts           2100634                       # Number of dispatched non-speculative instructions
system.cpu1.iew.iewDispSquashedInsts          1671552                       # Number of squashed instructions skipped by dispatch
system.cpu1.iew.iewDispStoreInsts            11913850                       # Number of dispatched store instructions
system.cpu1.iew.iewDispatchedInsts          139105362                       # Number of instructions dispatched to IQ
system.cpu1.iew.iewExecLoadInsts             34333120                       # Number of load instructions executed
system.cpu1.iew.iewExecSquashedInsts          1926842                       # Number of squashed instructions skipped in execute
system.cpu1.iew.iewExecutedInsts            133989716                       # Number of executed instructions
system.cpu1.iew.iewIQFullEvents               1932072                       # Number of times the IQ has become full, causing a stall
system.cpu1.iew.iewIdleCycles                       0                       # Number of cycles IEW is idle
system.cpu1.iew.iewLSQFullEvents             10135539                       # Number of times the LSQ has become full, causing a stall
system.cpu1.iew.iewSquashCycles               1983414                       # Number of cycles IEW is squashing
system.cpu1.iew.iewUnblockCycles             14299009                       # Number of cycles IEW is unblocking
system.cpu1.iew.lsq.thread0.blockedLoads            0                       # Number of blocked loads due to partial load-store forwarding
system.cpu1.iew.lsq.thread0.cacheBlocked        80651                       # Number of times an access to memory failed due to the cache being blocked
system.cpu1.iew.lsq.thread0.forwLoads          892840                       # Number of loads that had data forwarded from stores
system.cpu1.iew.lsq.thread0.ignoredResponses        21847                       # Number of memory responses ignored because the instruction is squashed
system.cpu1.iew.lsq.thread0.invAddrLoads            0                       # Number of loads ignored due to an invalid address
system.cpu1.iew.lsq.thread0.invAddrSwpfs            0                       # Number of software prefetches ignored due to an invalid address
system.cpu1.iew.lsq.thread0.memOrderViolation         2027                       # Number of memory ordering violations
system.cpu1.iew.lsq.thread0.rescheduledLoads        11184                       # Number of loads that were rescheduled
system.cpu1.iew.lsq.thread0.squashedLoads      4925691                       # Number of loads squashed
system.cpu1.iew.lsq.thread0.squashedStores       783473                       # Number of stores squashed
system.cpu1.iew.memOrderViolationEvents          2027                       # Number of memory order violations
system.cpu1.iew.predictedNotTakenIncorrect       527259                       # Number of branches that were predicted not taken incorrectly
system.cpu1.iew.predictedTakenIncorrect       1573049                       # Number of branches that were predicted taken incorrectly
system.cpu1.iew.wb_consumers                 74268375                       # num instructions consuming a value
system.cpu1.iew.wb_count                    132575581                       # cumulative count of insts written-back
system.cpu1.iew.wb_fanout                    0.858387                       # average fanout of values written-back
system.cpu1.iew.wb_producers                 63751044                       # num instructions producing a value
system.cpu1.iew.wb_rate                      0.296163                       # insts written-back per cycle
system.cpu1.iew.wb_sent                     132635583                       # cumulative count of insts sent to commit
system.cpu1.int_regfile_reads               169905541                       # number of integer regfile reads
system.cpu1.int_regfile_writes               89423840                       # number of integer regfile writes
system.cpu1.ipc                              0.268308                       # IPC: Instructions Per Cycle
system.cpu1.ipc_total                        0.268308                       # IPC: Total IPC of All Threads
system.cpu1.iq.FU_type_0::No_OpClass          4200230      3.09%      3.09% # Type of FU issued
system.cpu1.iq.FU_type_0::IntAlu             85264276     62.73%     65.82% # Type of FU issued
system.cpu1.iq.FU_type_0::IntMult                  46      0.00%     65.82% # Type of FU issued
system.cpu1.iq.FU_type_0::IntDiv                   88      0.00%     65.82% # Type of FU issued
system.cpu1.iq.FU_type_0::FloatAdd                  0      0.00%     65.82% # Type of FU issued
system.cpu1.iq.FU_type_0::FloatCmp                  0      0.00%     65.82% # Type of FU issued
system.cpu1.iq.FU_type_0::FloatCvt                  0      0.00%     65.82% # Type of FU issued
system.cpu1.iq.FU_type_0::FloatMult                 0      0.00%     65.82% # Type of FU issued
system.cpu1.iq.FU_type_0::FloatMultAcc              0      0.00%     65.82% # Type of FU issued
system.cpu1.iq.FU_type_0::FloatDiv                  0      0.00%     65.82% # Type of FU issued
system.cpu1.iq.FU_type_0::FloatMisc                 0      0.00%     65.82% # Type of FU issued
system.cpu1.iq.FU_type_0::FloatSqrt                 0      0.00%     65.82% # Type of FU issued
system.cpu1.iq.FU_type_0::SimdAdd                   0      0.00%     65.82% # Type of FU issued
system.cpu1.iq.FU_type_0::SimdAddAcc                0      0.00%     65.82% # Type of FU issued
system.cpu1.iq.FU_type_0::SimdAlu                   0      0.00%     65.82% # Type of FU issued
system.cpu1.iq.FU_type_0::SimdCmp                   0      0.00%     65.82% # Type of FU issued
system.cpu1.iq.FU_type_0::SimdCvt                   0      0.00%     65.82% # Type of FU issued
system.cpu1.iq.FU_type_0::SimdMisc                  0      0.00%     65.82% # Type of FU issued
system.cpu1.iq.FU_type_0::SimdMult                  0      0.00%     65.82% # Type of FU issued
system.cpu1.iq.FU_type_0::SimdMultAcc               0      0.00%     65.82% # Type of FU issued
system.cpu1.iq.FU_type_0::SimdShift                 0      0.00%     65.82% # Type of FU issued
system.cpu1.iq.FU_type_0::SimdShiftAcc              0      0.00%     65.82% # Type of FU issued
system.cpu1.iq.FU_type_0::SimdDiv                   0      0.00%     65.82% # Type of FU issued
system.cpu1.iq.FU_type_0::SimdSqrt                  0      0.00%     65.82% # Type of FU issued
system.cpu1.iq.FU_type_0::SimdFloatAdd              0      0.00%     65.82% # Type of FU issued
system.cpu1.iq.FU_type_0::SimdFloatAlu              0      0.00%     65.82% # Type of FU issued
system.cpu1.iq.FU_type_0::SimdFloatCmp              0      0.00%     65.82% # Type of FU issued
system.cpu1.iq.FU_type_0::SimdFloatCvt              0      0.00%     65.82% # Type of FU issued
system.cpu1.iq.FU_type_0::SimdFloatDiv              0      0.00%     65.82% # Type of FU issued
system.cpu1.iq.FU_type_0::SimdFloatMisc             0      0.00%     65.82% # Type of FU issued
system.cpu1.iq.FU_type_0::SimdFloatMult             0      0.00%     65.82% # Type of FU issued
system.cpu1.iq.FU_type_0::SimdFloatMultAcc            0      0.00%     65.82% # Type of FU issued
system.cpu1.iq.FU_type_0::SimdFloatSqrt             0      0.00%     65.82% # Type of FU issued
system.cpu1.iq.FU_type_0::SimdReduceAdd             0      0.00%     65.82% # Type of FU issued
system.cpu1.iq.FU_type_0::SimdReduceAlu             0      0.00%     65.82% # Type of FU issued
system.cpu1.iq.FU_type_0::SimdReduceCmp             0      0.00%     65.82% # Type of FU issued
system.cpu1.iq.FU_type_0::SimdFloatReduceAdd            0      0.00%     65.82% # Type of FU issued
system.cpu1.iq.FU_type_0::SimdFloatReduceCmp            0      0.00%     65.82% # Type of FU issued
system.cpu1.iq.FU_type_0::SimdAes                   0      0.00%     65.82% # Type of FU issued
system.cpu1.iq.FU_type_0::SimdAesMix                0      0.00%     65.82% # Type of FU issued
system.cpu1.iq.FU_type_0::SimdSha1Hash              0      0.00%     65.82% # Type of FU issued
system.cpu1.iq.FU_type_0::SimdSha1Hash2             0      0.00%     65.82% # Type of FU issued
system.cpu1.iq.FU_type_0::SimdSha256Hash            0      0.00%     65.82% # Type of FU issued
system.cpu1.iq.FU_type_0::SimdSha256Hash2            0      0.00%     65.82% # Type of FU issued
system.cpu1.iq.FU_type_0::SimdShaSigma2             0      0.00%     65.82% # Type of FU issued
system.cpu1.iq.FU_type_0::SimdShaSigma3             0      0.00%     65.82% # Type of FU issued
system.cpu1.iq.FU_type_0::SimdPredAlu               0      0.00%     65.82% # Type of FU issued
system.cpu1.iq.FU_type_0::MemRead            36930771     27.17%     92.99% # Type of FU issued
system.cpu1.iq.FU_type_0::MemWrite            9521135      7.01%    100.00% # Type of FU issued
system.cpu1.iq.FU_type_0::FloatMemRead              0      0.00%    100.00% # Type of FU issued
system.cpu1.iq.FU_type_0::FloatMemWrite            12      0.00%    100.00% # Type of FU issued
system.cpu1.iq.FU_type_0::IprAccess                 0      0.00%    100.00% # Type of FU issued
system.cpu1.iq.FU_type_0::InstPrefetch              0      0.00%    100.00% # Type of FU issued
system.cpu1.iq.FU_type_0::total             135916558                       # Type of FU issued
system.cpu1.iq.fp_alu_accesses                     14                       # Number of floating point alu accesses
system.cpu1.iq.fp_inst_queue_reads                 26                       # Number of floating instruction queue reads
system.cpu1.iq.fp_inst_queue_wakeup_accesses           12                       # Number of floating instruction queue wakeup accesses
system.cpu1.iq.fp_inst_queue_writes                12                       # Number of floating instruction queue writes
system.cpu1.iq.fu_busy_cnt                    2613912                       # FU busy when requested
system.cpu1.iq.fu_busy_rate                  0.019232                       # FU busy rate (busy events/executed inst)
system.cpu1.iq.fu_full::No_OpClass                  0      0.00%      0.00% # attempts to use FU when none available
system.cpu1.iq.fu_full::IntAlu                 519405     19.87%     19.87% # attempts to use FU when none available
system.cpu1.iq.fu_full::IntMult                     0      0.00%     19.87% # attempts to use FU when none available
system.cpu1.iq.fu_full::IntDiv                      0      0.00%     19.87% # attempts to use FU when none available
system.cpu1.iq.fu_full::FloatAdd                    0      0.00%     19.87% # attempts to use FU when none available
system.cpu1.iq.fu_full::FloatCmp                    0      0.00%     19.87% # attempts to use FU when none available
system.cpu1.iq.fu_full::FloatCvt                    0      0.00%     19.87% # attempts to use FU when none available
system.cpu1.iq.fu_full::FloatMult                   0      0.00%     19.87% # attempts to use FU when none available
system.cpu1.iq.fu_full::FloatMultAcc                0      0.00%     19.87% # attempts to use FU when none available
system.cpu1.iq.fu_full::FloatDiv                    0      0.00%     19.87% # attempts to use FU when none available
system.cpu1.iq.fu_full::FloatMisc                   0      0.00%     19.87% # attempts to use FU when none available
system.cpu1.iq.fu_full::FloatSqrt                   0      0.00%     19.87% # attempts to use FU when none available
system.cpu1.iq.fu_full::SimdAdd                     0      0.00%     19.87% # attempts to use FU when none available
system.cpu1.iq.fu_full::SimdAddAcc                  0      0.00%     19.87% # attempts to use FU when none available
system.cpu1.iq.fu_full::SimdAlu                     0      0.00%     19.87% # attempts to use FU when none available
system.cpu1.iq.fu_full::SimdCmp                     0      0.00%     19.87% # attempts to use FU when none available
system.cpu1.iq.fu_full::SimdCvt                     0      0.00%     19.87% # attempts to use FU when none available
system.cpu1.iq.fu_full::SimdMisc                    0      0.00%     19.87% # attempts to use FU when none available
system.cpu1.iq.fu_full::SimdMult                    0      0.00%     19.87% # attempts to use FU when none available
system.cpu1.iq.fu_full::SimdMultAcc                 0      0.00%     19.87% # attempts to use FU when none available
system.cpu1.iq.fu_full::SimdShift                   0      0.00%     19.87% # attempts to use FU when none available
system.cpu1.iq.fu_full::SimdShiftAcc                0      0.00%     19.87% # attempts to use FU when none available
system.cpu1.iq.fu_full::SimdDiv                     0      0.00%     19.87% # attempts to use FU when none available
system.cpu1.iq.fu_full::SimdSqrt                    0      0.00%     19.87% # attempts to use FU when none available
system.cpu1.iq.fu_full::SimdFloatAdd                0      0.00%     19.87% # attempts to use FU when none available
system.cpu1.iq.fu_full::SimdFloatAlu                0      0.00%     19.87% # attempts to use FU when none available
system.cpu1.iq.fu_full::SimdFloatCmp                0      0.00%     19.87% # attempts to use FU when none available
system.cpu1.iq.fu_full::SimdFloatCvt                0      0.00%     19.87% # attempts to use FU when none available
system.cpu1.iq.fu_full::SimdFloatDiv                0      0.00%     19.87% # attempts to use FU when none available
system.cpu1.iq.fu_full::SimdFloatMisc               0      0.00%     19.87% # attempts to use FU when none available
system.cpu1.iq.fu_full::SimdFloatMult               0      0.00%     19.87% # attempts to use FU when none available
system.cpu1.iq.fu_full::SimdFloatMultAcc            0      0.00%     19.87% # attempts to use FU when none available
system.cpu1.iq.fu_full::SimdFloatSqrt               0      0.00%     19.87% # attempts to use FU when none available
system.cpu1.iq.fu_full::SimdReduceAdd               0      0.00%     19.87% # attempts to use FU when none available
system.cpu1.iq.fu_full::SimdReduceAlu               0      0.00%     19.87% # attempts to use FU when none available
system.cpu1.iq.fu_full::SimdReduceCmp               0      0.00%     19.87% # attempts to use FU when none available
system.cpu1.iq.fu_full::SimdFloatReduceAdd            0      0.00%     19.87% # attempts to use FU when none available
system.cpu1.iq.fu_full::SimdFloatReduceCmp            0      0.00%     19.87% # attempts to use FU when none available
system.cpu1.iq.fu_full::SimdAes                     0      0.00%     19.87% # attempts to use FU when none available
system.cpu1.iq.fu_full::SimdAesMix                  0      0.00%     19.87% # attempts to use FU when none available
system.cpu1.iq.fu_full::SimdSha1Hash                0      0.00%     19.87% # attempts to use FU when none available
system.cpu1.iq.fu_full::SimdSha1Hash2               0      0.00%     19.87% # attempts to use FU when none available
system.cpu1.iq.fu_full::SimdSha256Hash              0      0.00%     19.87% # attempts to use FU when none available
system.cpu1.iq.fu_full::SimdSha256Hash2             0      0.00%     19.87% # attempts to use FU when none available
system.cpu1.iq.fu_full::SimdShaSigma2               0      0.00%     19.87% # attempts to use FU when none available
system.cpu1.iq.fu_full::SimdShaSigma3               0      0.00%     19.87% # attempts to use FU when none available
system.cpu1.iq.fu_full::SimdPredAlu                 0      0.00%     19.87% # attempts to use FU when none available
system.cpu1.iq.fu_full::MemRead               1776126     67.95%     87.82% # attempts to use FU when none available
system.cpu1.iq.fu_full::MemWrite               318379     12.18%    100.00% # attempts to use FU when none available
system.cpu1.iq.fu_full::FloatMemRead                0      0.00%    100.00% # attempts to use FU when none available
[...]
system.cpu1.dcache.WriteReq_hits::.cpu1.data      3929899                       # number of WriteReq hits
system.cpu1.dcache.WriteReq_hits::total       3929899                       # number of WriteReq hits
system.cpu1.dcache.WriteReq_misses::.cpu1.data      1981750                       # number of WriteReq misses
system.cpu1.dcache.WriteReq_misses::total      1981750                       # number of WriteReq misses
system.cpu1.dcache.WriteReq_miss_latency::.cpu1.data 107911413555                       # number of WriteReq miss cycles
system.cpu1.dcache.WriteReq_miss_latency::total 107911413555                       # number of WriteReq miss cycles
system.cpu1.dcache.WriteReq_accesses::.cpu1.data      5911649                       # number of WriteReq accesses(hits+misses)
system.cpu1.dcache.WriteReq_accesses::total      5911649                       # number of WriteReq accesses(hits+misses)
system.cpu1.dcache.WriteReq_miss_rate::.cpu1.data     0.335228                       # miss rate for WriteReq accesses
system.cpu1.dcache.WriteReq_miss_rate::total     0.335228                       # miss rate for WriteReq accesses
system.cpu1.dcache.WriteReq_avg_miss_latency::.cpu1.data 54452.586631                       # average WriteReq miss latency
system.cpu1.dcache.WriteReq_avg_miss_latency::total 54452.586631                       # average WriteReq miss latency
system.cpu1.dcache.WriteReq_mshr_hits::.cpu1.data      1757348                       # number of WriteReq MSHR hits
system.cpu1.dcache.WriteReq_mshr_hits::total      1757348                       # number of WriteReq MSHR hits
system.cpu1.dcache.WriteReq_mshr_misses::.cpu1.data       224402                       # number of WriteReq MSHR misses
system.cpu1.dcache.WriteReq_mshr_misses::total       224402                       # number of WriteReq MSHR misses
system.cpu1.dcache.WriteReq_mshr_miss_latency::.cpu1.data  10793093717                       # number of WriteReq MSHR miss cycles
system.cpu1.dcache.WriteReq_mshr_miss_latency::total  10793093717                       # number of WriteReq MSHR miss cycles
system.cpu1.dcache.WriteReq_mshr_miss_rate::.cpu1.data     0.037959                       # mshr miss rate for WriteReq accesses
system.cpu1.dcache.WriteReq_mshr_miss_rate::total     0.037959                       # mshr miss rate for WriteReq accesses
system.cpu1.dcache.WriteReq_avg_mshr_miss_latency::.cpu1.data 48097.136911                       # average WriteReq mshr miss latency
system.cpu1.dcache.WriteReq_avg_mshr_miss_latency::total 48097.136911                       # average WriteReq mshr miss latency
system.cpu1.dcache.LoadLockedReq_hits::.cpu1.data      2174852                       # number of LoadLockedReq hits
system.cpu1.dcache.LoadLockedReq_hits::total      2174852                       # number of LoadLockedReq hits
system.cpu1.dcache.LoadLockedReq_misses::.cpu1.data         7611                       # number of LoadLockedReq misses
system.cpu1.dcache.LoadLockedReq_misses::total         7611                       # number of LoadLockedReq misses
system.cpu1.dcache.LoadLockedReq_miss_latency::.cpu1.data    151881000                       # number of LoadLockedReq miss cycles
system.cpu1.dcache.LoadLockedReq_miss_latency::total    151881000                       # number of LoadLockedReq miss cycles
system.cpu1.dcache.LoadLockedReq_accesses::.cpu1.data      2182463                       # number of LoadLockedReq accesses(hits+misses)
system.cpu1.dcache.LoadLockedReq_accesses::total      2182463                       # number of LoadLockedReq accesses(hits+misses)
system.cpu1.dcache.LoadLockedReq_miss_rate::.cpu1.data     0.003487                       # miss rate for LoadLockedReq accesses
system.cpu1.dcache.LoadLockedReq_miss_rate::total     0.003487                       # miss rate for LoadLockedReq accesses
system.cpu1.dcache.LoadLockedReq_avg_miss_latency::.cpu1.data 19955.459204                       # average LoadLockedReq miss latency
system.cpu1.dcache.LoadLockedReq_avg_miss_latency::total 19955.459204                       # average LoadLockedReq miss latency
system.cpu1.dcache.LoadLockedReq_mshr_hits::.cpu1.data          949                       # number of LoadLockedReq MSHR hits
system.cpu1.dcache.LoadLockedReq_mshr_hits::total          949                       # number of LoadLockedReq MSHR hits
system.cpu1.dcache.LoadLockedReq_mshr_misses::.cpu1.data         6662                       # number of LoadLockedReq MSHR misses
system.cpu1.dcache.LoadLockedReq_mshr_misses::total         6662                       # number of LoadLockedReq MSHR misses
system.cpu1.dcache.LoadLockedReq_mshr_miss_latency::.cpu1.data    128644500                       # number of LoadLockedReq MSHR miss cycles
system.cpu1.dcache.LoadLockedReq_mshr_miss_latency::total    128644500                       # number of LoadLockedReq MSHR miss cycles
system.cpu1.dcache.LoadLockedReq_mshr_miss_rate::.cpu1.data     0.003053                       # mshr miss rate for LoadLockedReq accesses
system.cpu1.dcache.LoadLockedReq_mshr_miss_rate::total     0.003053                       # mshr miss rate for LoadLockedReq accesses
system.cpu1.dcache.LoadLockedReq_avg_mshr_miss_latency::.cpu1.data 19310.192134                       # average LoadLockedReq mshr miss latency
system.cpu1.dcache.LoadLockedReq_avg_mshr_miss_latency::total 19310.192134                       # average LoadLockedReq mshr miss latency
system.cpu1.dcache.StoreCondReq_hits::.cpu1.data      2181054                       # number of StoreCondReq hits
system.cpu1.dcache.StoreCondReq_hits::total      2181054                       # number of StoreCondReq hits
system.cpu1.dcache.StoreCondReq_misses::.cpu1.data         1096                       # number of StoreCondReq misses
system.cpu1.dcache.StoreCondReq_misses::total         1096                       # number of StoreCondReq misses
system.cpu1.dcache.StoreCondReq_miss_latency::.cpu1.data     18634000                       # number of StoreCondReq miss cycles
system.cpu1.dcache.StoreCondReq_miss_latency::total     18634000                       # number of StoreCondReq miss cycles
system.cpu1.dcache.StoreCondReq_accesses::.cpu1.data      2182150                       # number of StoreCondReq accesses(hits+misses)
system.cpu1.dcache.StoreCondReq_accesses::total      2182150                       # number of StoreCondReq accesses(hits+misses)
system.cpu1.dcache.StoreCondReq_miss_rate::.cpu1.data     0.000502                       # miss rate for StoreCondReq accesses
system.cpu1.dcache.StoreCondReq_miss_rate::total     0.000502                       # miss rate for StoreCondReq accesses
system.cpu1.dcache.StoreCondReq_avg_miss_latency::.cpu1.data 17001.824818                       # average StoreCondReq miss latency
system.cpu1.dcache.StoreCondReq_avg_miss_latency::total 17001.824818                       # average StoreCondReq miss latency
system.cpu1.dcache.StoreCondReq_mshr_misses::.cpu1.data         1083                       # number of StoreCondReq MSHR misses
system.cpu1.dcache.StoreCondReq_mshr_misses::total         1083                       # number of StoreCondReq MSHR misses
system.cpu1.dcache.StoreCondReq_mshr_miss_latency::.cpu1.data     17553000                       # number of StoreCondReq MSHR miss cycles
system.cpu1.dcache.StoreCondReq_mshr_miss_latency::total     17553000                       # number of StoreCondReq MSHR miss cycles
system.cpu1.dcache.StoreCondReq_mshr_miss_rate::.cpu1.data     0.000496                       # mshr miss rate for StoreCondReq accesses
system.cpu1.dcache.StoreCondReq_mshr_miss_rate::total     0.000496                       # mshr miss rate for StoreCondReq accesses
system.cpu1.dcache.StoreCondReq_avg_mshr_miss_latency::.cpu1.data 16207.756233                       # average StoreCondReq mshr miss latency
system.cpu1.dcache.StoreCondReq_avg_mshr_miss_latency::total 16207.756233                       # average StoreCondReq mshr miss latency
system.cpu1.dcache.StoreCondFailReq_miss_latency::.cpu1.data        31000                       # number of StoreCondFailReq miss cycles
system.cpu1.dcache.StoreCondFailReq_miss_latency::total        31000                       # number of StoreCondFailReq miss cycles
system.cpu1.dcache.StoreCondFailReq_avg_miss_latency::.cpu1.data          inf                       # average StoreCondFailReq miss latency
system.cpu1.dcache.StoreCondFailReq_avg_miss_latency::total          inf                       # average StoreCondFailReq miss latency
system.cpu1.dcache.StoreCondFailReq_mshr_miss_latency::.cpu1.data        29000                       # number of StoreCondFailReq MSHR miss cycles
system.cpu1.dcache.StoreCondFailReq_mshr_miss_latency::total        29000                       # number of StoreCondFailReq MSHR miss cycles
system.cpu1.dcache.StoreCondFailReq_avg_mshr_miss_latency::.cpu1.data          inf                       # average StoreCondFailReq mshr miss latency
system.cpu1.dcache.StoreCondFailReq_avg_mshr_miss_latency::total          inf                       # average StoreCondFailReq mshr miss latency
system.cpu1.dcache.SwapReq_hits::.cpu1.data          480                       # number of SwapReq hits
system.cpu1.dcache.SwapReq_hits::total            480                       # number of SwapReq hits
system.cpu1.dcache.SwapReq_misses::.cpu1.data         1891                       # number of SwapReq misses
system.cpu1.dcache.SwapReq_misses::total         1891                       # number of SwapReq misses
system.cpu1.dcache.SwapReq_miss_latency::.cpu1.data     47683499                       # number of SwapReq miss cycles
system.cpu1.dcache.SwapReq_miss_latency::total     47683499                       # number of SwapReq miss cycles
system.cpu1.dcache.SwapReq_accesses::.cpu1.data         2371                       # number of SwapReq accesses(hits+misses)
system.cpu1.dcache.SwapReq_accesses::total         2371                       # number of SwapReq accesses(hits+misses)
system.cpu1.dcache.SwapReq_miss_rate::.cpu1.data     0.797554                       # miss rate for SwapReq accesses
system.cpu1.dcache.SwapReq_miss_rate::total     0.797554                       # miss rate for SwapReq accesses
system.cpu1.dcache.SwapReq_avg_miss_latency::.cpu1.data 25216.022739                       # average SwapReq miss latency
system.cpu1.dcache.SwapReq_avg_miss_latency::total 25216.022739                       # average SwapReq miss latency
system.cpu1.dcache.SwapReq_mshr_misses::.cpu1.data         1891                       # number of SwapReq MSHR misses
system.cpu1.dcache.SwapReq_mshr_misses::total         1891                       # number of SwapReq MSHR misses
system.cpu1.dcache.SwapReq_mshr_miss_latency::.cpu1.data     45792499                       # number of SwapReq MSHR miss cycles
system.cpu1.dcache.SwapReq_mshr_miss_latency::total     45792499                       # number of SwapReq MSHR miss cycles
system.cpu1.dcache.SwapReq_mshr_miss_rate::.cpu1.data     0.797554                       # mshr miss rate for SwapReq accesses
system.cpu1.dcache.SwapReq_mshr_miss_rate::total     0.797554                       # mshr miss rate for SwapReq accesses
system.cpu1.dcache.SwapReq_avg_mshr_miss_latency::.cpu1.data 24216.022739                       # average SwapReq mshr miss latency
system.cpu1.dcache.SwapReq_avg_mshr_miss_latency::total 24216.022739                       # average SwapReq mshr miss latency
system.cpu1.dcache.tags.pwrStateResidencyTicks::UNDEFINED 1070084310500                       # Cumulative time (in ticks) in various power states
system.cpu1.dcache.tags.tagsinuse           31.989254                       # Cycle average of tags in use
system.cpu1.dcache.tags.total_refs          169861512                       # Total number of references to valid blocks.
system.cpu1.dcache.tags.sampled_refs         13162498                       # Sample count of references to valid blocks.
system.cpu1.dcache.tags.avg_refs            12.904960                       # Average number of references to valid blocks.
system.cpu1.dcache.tags.warmup_cycle                0                       # Cycle when the warmup percentage was hit.
system.cpu1.dcache.tags.occ_blocks::.cpu1.data    31.989254                       # Average occupied blocks per requestor
system.cpu1.dcache.tags.occ_percent::.cpu1.data     0.999664                       # Average percentage of cache occupancy
system.cpu1.dcache.tags.occ_percent::total     0.999664                       # Average percentage of cache occupancy
system.cpu1.dcache.tags.occ_task_id_blocks::1024           31                       # Occupied blocks per task id
system.cpu1.dcache.tags.age_task_id_blocks_1024::2           31                       # Occupied blocks per task id
system.cpu1.dcache.tags.occ_task_id_percent::1024     0.968750                       # Percentage of cache occupancy per task id
system.cpu1.dcache.tags.tag_accesses        384333598                       # Number of tag accesses
system.cpu1.dcache.tags.data_accesses       384333598                       # Number of data accesses
system.cpu_clk_domain.clock                       500                       # Clock period in ticks
system.tol2bus.pwrStateResidencyTicks::UNDEFINED 1070084310500                       # Cumulative time (in ticks) in various power states
system.tol2bus.trans_dist::ReadResp          30900903                       # Transaction distribution
system.tol2bus.trans_dist::WritebackDirty     10622759                       # Transaction distribution
system.tol2bus.trans_dist::WritebackClean     25891952                       # Transaction distribution
system.tol2bus.trans_dist::CleanEvict        77572734                       # Transaction distribution
system.tol2bus.trans_dist::HardPFReq         54940588                       # Transaction distribution
system.tol2bus.trans_dist::HardPFResp              10                       # Transaction distribution
system.tol2bus.trans_dist::UpgradeReq            9514                       # Transaction distribution
system.tol2bus.trans_dist::SCUpgradeReq          2112                       # Transaction distribution
system.tol2bus.trans_dist::UpgradeResp          11626                       # Transaction distribution
system.tol2bus.trans_dist::SCUpgradeFailReq            3                       # Transaction distribution
system.tol2bus.trans_dist::UpgradeFailResp            3                       # Transaction distribution
system.tol2bus.trans_dist::ReadExReq           497011                       # Transaction distribution
system.tol2bus.trans_dist::ReadExResp          497011                       # Transaction distribution
system.tol2bus.trans_dist::ReadCleanReq        412706                       # Transaction distribution
system.tol2bus.trans_dist::ReadSharedReq     30488199                       # Transaction distribution
system.tol2bus.trans_dist::InvalidateReq          205                       # Transaction distribution
system.tol2bus.trans_dist::InvalidateResp          205                       # Transaction distribution
system.tol2bus.pkt_count_system.cpu0.icache.mem_side::system.l2.cpu_side      1221188                       # Packet count per connected master and slave (bytes)
system.tol2bus.pkt_count_system.cpu0.dcache.mem_side::system.l2.cpu_side     53464466                       # Packet count per connected master and slave (bytes)
system.tol2bus.pkt_count_system.cpu1.icache.mem_side::system.l2.cpu_side        16926                       # Packet count per connected master and slave (bytes)
system.tol2bus.pkt_count_system.cpu1.dcache.mem_side::system.l2.cpu_side     39487154                       # Packet count per connected master and slave (bytes)
system.tol2bus.pkt_count::total              94189734                       # Packet count per connected master and slave (bytes)
system.tol2bus.pkt_size_system.cpu0.icache.mem_side::system.l2.cpu_side     52103936                       # Cumulative packet size per connected master and slave (bytes)
system.tol2bus.pkt_size_system.cpu0.dcache.mem_side::system.l2.cpu_side   2280426560                       # Cumulative packet size per connected master and slave (bytes)
system.tol2bus.pkt_size_system.cpu1.icache.mem_side::system.l2.cpu_side       722176                       # Cumulative packet size per connected master and slave (bytes)
system.tol2bus.pkt_size_system.cpu1.dcache.mem_side::system.l2.cpu_side   1684021184                       # Cumulative packet size per connected master and slave (bytes)
system.tol2bus.pkt_size::total             4017273856                       # Cumulative packet size per connected master and slave (bytes)
system.tol2bus.snoops                       137657817                       # Total snoops (count)
system.tol2bus.snoopTraffic                 329135616                       # Total snoop traffic (bytes)
system.tol2bus.snoop_fanout::samples        169094551                       # Request fanout histogram
system.tol2bus.snoop_fanout::mean            0.152736                       # Request fanout histogram
system.tol2bus.snoop_fanout::stdev           0.373078                       # Request fanout histogram
system.tol2bus.snoop_fanout::underflows             0      0.00%      0.00% # Request fanout histogram
system.tol2bus.snoop_fanout::0              144094576     85.22%     85.22% # Request fanout histogram
system.tol2bus.snoop_fanout::1               24173127     14.30%     99.51% # Request fanout histogram
system.tol2bus.snoop_fanout::2                 826848      0.49%    100.00% # Request fanout histogram
system.tol2bus.snoop_fanout::3                      0      0.00%    100.00% # Request fanout histogram
system.tol2bus.snoop_fanout::4                      0      0.00%    100.00% # Request fanout histogram
system.tol2bus.snoop_fanout::5                      0      0.00%    100.00% # Request fanout histogram
system.tol2bus.snoop_fanout::6                      0      0.00%    100.00% # Request fanout histogram
system.tol2bus.snoop_fanout::7                      0      0.00%    100.00% # Request fanout histogram
system.tol2bus.snoop_fanout::8                      0      0.00%    100.00% # Request fanout histogram
system.tol2bus.snoop_fanout::overflows              0      0.00%    100.00% # Request fanout histogram
system.tol2bus.snoop_fanout::min_value              0                       # Request fanout histogram
system.tol2bus.snoop_fanout::max_value              2                       # Request fanout histogram
system.tol2bus.snoop_fanout::total          169094551                       # Request fanout histogram
system.tol2bus.reqLayer0.occupancy        62848961080                       # Layer occupancy (ticks)
system.tol2bus.reqLayer0.utilization              5.9                       # Layer utilization (%)
system.tol2bus.respLayer1.occupancy       26749734215                       # Layer occupancy (ticks)
system.tol2bus.respLayer1.utilization             2.5                       # Layer utilization (%)
system.tol2bus.respLayer0.occupancy         610735215                       # Layer occupancy (ticks)
system.tol2bus.respLayer0.utilization             0.1                       # Layer utilization (%)
system.tol2bus.respLayer3.occupancy       19758816562                       # Layer occupancy (ticks)
system.tol2bus.respLayer3.utilization             1.8                       # Layer utilization (%)
system.tol2bus.respLayer2.occupancy           8504916                       # Layer occupancy (ticks)
system.tol2bus.respLayer2.utilization             0.0                       # Layer utilization (%)
system.tol2bus.snoopLayer0.occupancy            15004                       # Layer occupancy (ticks)
system.tol2bus.snoopLayer0.utilization            0.0                       # Layer utilization (%)

---------- End Simulation Statistics   ----------
