
---------- Begin Simulation Statistics ----------
final_tick                               961940553000                       # Number of ticks from beginning of simulation (restored from checkpoints and never reset)
host_inst_rate                                  85848                       # Simulator instruction rate (inst/s)
host_mem_usage                                 739584                       # Number of bytes of host memory used
host_op_rate                                    86128                       # Simulator op (including micro ops) rate (op/s)
host_seconds                                 12922.88                       # Real time elapsed on the host
host_tick_rate                               74436994                       # Simulator tick rate (ticks/s)
sim_freq                                 1000000000000                       # Frequency of simulated ticks
sim_insts                                  1109401539                       # Number of instructions simulated
sim_ops                                    1113028120                       # Number of ops (including micro ops) simulated
sim_seconds                                  0.961941                       # Number of seconds simulated
sim_ticks                                961940553000                       # Number of ticks simulated
system.cpu0.branchPred.BTBCorrect                   0                       # Number of correct BTB predictions (this stat may not work properly.
system.cpu0.branchPred.BTBHitPct            87.682303                       # BTB Hit Percentage
system.cpu0.branchPred.BTBHits              139439859                       # Number of BTB hits
system.cpu0.branchPred.BTBLookups           159028509                       # Number of BTB lookups
system.cpu0.branchPred.RASInCorrect                 0                       # Number of incorrect RAS predictions.
system.cpu0.branchPred.condIncorrect         19774405                       # Number of conditional branches incorrect
system.cpu0.branchPred.condPredicted        213373646                       # Number of conditional branches predicted
system.cpu0.branchPred.indirectHits          18431256                       # Number of indirect target hits.
system.cpu0.branchPred.indirectLookups       18513768                       # Number of indirect predictor lookups.
system.cpu0.branchPred.indirectMisses           82512                       # Number of indirect misses.
system.cpu0.branchPred.lookups              272832023                       # Number of BP lookups
system.cpu0.branchPred.usedRAS                      0                       # Number of times the RAS was used to get a target.
system.cpu0.branchPredindirectMispredicted      1851620                       # Number of mispredicted indirect branches.
system.cpu0.commit.amos                        906055                       # Number of atomic instructions committed
system.cpu0.commit.branchMispredicts         11939318                       # The number of times a branch was mispredicted
system.cpu0.commit.branches                 252644374                       # Number of branches committed
system.cpu0.commit.bw_lim_events             32231031                       # number cycles where commit BW limit reached
system.cpu0.commit.commitNonSpecStalls        2725496                       # The number of times commit has been forced to stall to communicate backwards
system.cpu0.commit.commitSquashedInsts       57561818                       # The number of squashed insts skipped by commit
system.cpu0.commit.committedInsts          1016591302                       # Number of instructions committed
system.cpu0.commit.committedOps            1017499879                       # Number of ops (including micro ops) committed
system.cpu0.commit.committed_per_cycle::samples   1737318168                       # Number of insts commited each cycle
system.cpu0.commit.committed_per_cycle::mean     0.585673                       # Number of insts commited each cycle
system.cpu0.commit.committed_per_cycle::stdev     1.392462                       # Number of insts commited each cycle
system.cpu0.commit.committed_per_cycle::underflows            0      0.00%      0.00% # Number of insts commited each cycle
system.cpu0.commit.committed_per_cycle::0   1263682733     72.74%     72.74% # Number of insts commited each cycle
system.cpu0.commit.committed_per_cycle::1    275420258     15.85%     88.59% # Number of insts commited each cycle
system.cpu0.commit.committed_per_cycle::2     72587335      4.18%     92.77% # Number of insts commited each cycle
system.cpu0.commit.committed_per_cycle::3     59951658      3.45%     96.22% # Number of insts commited each cycle
system.cpu0.commit.committed_per_cycle::4     19711808      1.13%     97.35% # Number of insts commited each cycle
system.cpu0.commit.committed_per_cycle::5      6588692      0.38%     97.73% # Number of insts commited each cycle
system.cpu0.commit.committed_per_cycle::6      2601534      0.15%     97.88% # Number of insts commited each cycle
system.cpu0.commit.committed_per_cycle::7      4543119      0.26%     98.14% # Number of insts commited each cycle
system.cpu0.commit.committed_per_cycle::8     32231031      1.86%    100.00% # Number of insts commited each cycle
system.cpu0.commit.committed_per_cycle::overflows            0      0.00%    100.00% # Number of insts commited each cycle
system.cpu0.commit.committed_per_cycle::min_value            0                       # Number of insts commited each cycle
system.cpu0.commit.committed_per_cycle::max_value            8                       # Number of insts commited each cycle
system.cpu0.commit.committed_per_cycle::total   1737318168                       # Number of insts commited each cycle
system.cpu0.commit.fp_insts                        65                       # Number of committed floating point instructions.
system.cpu0.commit.function_calls            20546069                       # Number of function calls committed.
system.cpu0.commit.int_insts                983017913                       # Number of committed integer instructions.
system.cpu0.commit.loads                    316450791                       # Number of loads committed
system.cpu0.commit.membars                    1814490                       # Number of memory barriers committed
system.cpu0.commit.op_class_0::No_OpClass      1814499      0.18%      0.18% # Class of committed instruction
system.cpu0.commit.op_class_0::IntAlu       563621840     55.39%     55.57% # Class of committed instruction
system.cpu0.commit.op_class_0::IntMult        8030469      0.79%     56.36% # Class of committed instruction
system.cpu0.commit.op_class_0::IntDiv         1811041      0.18%     56.54% # Class of committed instruction
system.cpu0.commit.op_class_0::FloatAdd             0      0.00%     56.54% # Class of committed instruction
system.cpu0.commit.op_class_0::FloatCmp             6      0.00%     56.54% # Class of committed instruction
system.cpu0.commit.op_class_0::FloatCvt            16      0.00%     56.54% # Class of committed instruction
system.cpu0.commit.op_class_0::FloatMult            0      0.00%     56.54% # Class of committed instruction
system.cpu0.commit.op_class_0::FloatMultAcc            0      0.00%     56.54% # Class of committed instruction
system.cpu0.commit.op_class_0::FloatDiv             2      0.00%     56.54% # Class of committed instruction
system.cpu0.commit.op_class_0::FloatMisc            6      0.00%     56.54% # Class of committed instruction
system.cpu0.commit.op_class_0::FloatSqrt            0      0.00%     56.54% # Class of committed instruction
system.cpu0.commit.op_class_0::SimdAdd              0      0.00%     56.54% # Class of committed instruction
system.cpu0.commit.op_class_0::SimdAddAcc            0      0.00%     56.54% # Class of committed instruction
system.cpu0.commit.op_class_0::SimdAlu              0      0.00%     56.54% # Class of committed instruction
system.cpu0.commit.op_class_0::SimdCmp              0      0.00%     56.54% # Class of committed instruction
system.cpu0.commit.op_class_0::SimdCvt              0      0.00%     56.54% # Class of committed instruction
system.cpu0.commit.op_class_0::SimdMisc             0      0.00%     56.54% # Class of committed instruction
system.cpu0.commit.op_class_0::SimdMult             0      0.00%     56.54% # Class of committed instruction
system.cpu0.commit.op_class_0::SimdMultAcc            0      0.00%     56.54% # Class of committed instruction
system.cpu0.commit.op_class_0::SimdShift            0      0.00%     56.54% # Class of committed instruction
system.cpu0.commit.op_class_0::SimdShiftAcc            0      0.00%     56.54% # Class of committed instruction
system.cpu0.commit.op_class_0::SimdDiv              0      0.00%     56.54% # Class of committed instruction
system.cpu0.commit.op_class_0::SimdSqrt             0      0.00%     56.54% # Class of committed instruction
system.cpu0.commit.op_class_0::SimdFloatAdd            0      0.00%     56.54% # Class of committed instruction
system.cpu0.commit.op_class_0::SimdFloatAlu            0      0.00%     56.54% # Class of committed instruction
system.cpu0.commit.op_class_0::SimdFloatCmp            0      0.00%     56.54% # Class of committed instruction
system.cpu0.commit.op_class_0::SimdFloatCvt            0      0.00%     56.54% # Class of committed instruction
system.cpu0.commit.op_class_0::SimdFloatDiv            0      0.00%     56.54% # Class of committed instruction
system.cpu0.commit.op_class_0::SimdFloatMisc            0      0.00%     56.54% # Class of committed instruction
system.cpu0.commit.op_class_0::SimdFloatMult            0      0.00%     56.54% # Class of committed instruction
system.cpu0.commit.op_class_0::SimdFloatMultAcc            0      0.00%     56.54% # Class of committed instruction
system.cpu0.commit.op_class_0::SimdFloatSqrt            0      0.00%     56.54% # Class of committed instruction
system.cpu0.commit.op_class_0::SimdReduceAdd            0      0.00%     56.54% # Class of committed instruction
system.cpu0.commit.op_class_0::SimdReduceAlu            0      0.00%     56.54% # Class of committed instruction
system.cpu0.commit.op_class_0::SimdReduceCmp            0      0.00%     56.54% # Class of committed instruction
system.cpu0.commit.op_class_0::SimdFloatReduceAdd            0      0.00%     56.54% # Class of committed instruction
system.cpu0.commit.op_class_0::SimdFloatReduceCmp            0      0.00%     56.54% # Class of committed instruction
system.cpu0.commit.op_class_0::SimdAes              0      0.00%     56.54% # Class of committed instruction
system.cpu0.commit.op_class_0::SimdAesMix            0      0.00%     56.54% # Class of committed instruction
system.cpu0.commit.op_class_0::SimdSha1Hash            0      0.00%     56.54% # Class of committed instruction
system.cpu0.commit.op_class_0::SimdSha1Hash2            0      0.00%     56.54% # Class of committed instruction
system.cpu0.commit.op_class_0::SimdSha256Hash            0      0.00%     56.54% # Class of committed instruction
system.cpu0.commit.op_class_0::SimdSha256Hash2            0      0.00%     56.54% # Class of committed instruction
system.cpu0.commit.op_class_0::SimdShaSigma2            0      0.00%     56.54% # Class of committed instruction
system.cpu0.commit.op_class_0::SimdShaSigma3            0      0.00%     56.54% # Class of committed instruction
system.cpu0.commit.op_class_0::SimdPredAlu            0      0.00%     56.54% # Class of committed instruction
system.cpu0.commit.op_class_0::MemRead      317356834     31.19%     87.73% # Class of committed instruction
system.cpu0.commit.op_class_0::MemWrite     124865131     12.27%    100.00% # Class of committed instruction
system.cpu0.commit.op_class_0::FloatMemRead           12      0.00%    100.00% # Class of committed instruction
system.cpu0.commit.op_class_0::FloatMemWrite           23      0.00%    100.00% # Class of committed instruction
system.cpu0.commit.op_class_0::IprAccess            0      0.00%    100.00% # Class of committed instruction
system.cpu0.commit.op_class_0::InstPrefetch            0      0.00%    100.00% # Class of committed instruction
system.cpu0.commit.op_class_0::total       1017499879                       # Class of committed instruction
system.cpu0.commit.refs                     442222000                       # Number of memory references committed
system.cpu0.commit.swp_count                        0                       # Number of s/w prefetches committed
system.cpu0.commit.vec_insts                        0                       # Number of committed Vector instructions.
system.cpu0.committedInsts                 1016591302                       # Number of Instructions Simulated
system.cpu0.committedOps                   1017499879                       # Number of Ops (including micro ops) Simulated
system.cpu0.cpi                              1.875996                       # CPI: Cycles Per Instruction
system.cpu0.cpi_total                        1.875996                       # CPI: Total CPI of All Threads
system.cpu0.decode.BlockedCycles            198914488                       # Number of cycles decode is blocked
system.cpu0.decode.BranchMispred              7838463                       # Number of times decode detected a branch misprediction
system.cpu0.decode.BranchResolved           138350782                       # Number of times decode resolved a branch
system.cpu0.decode.DecodedInsts            1104270471                       # Number of instructions handled by decode
system.cpu0.decode.IdleCycles               744997349                       # Number of cycles decode is idle
system.cpu0.decode.RunCycles                793390492                       # Number of cycles decode is running
system.cpu0.decode.SquashCycles              11951498                       # Number of cycles decode is squashing
system.cpu0.decode.SquashedInsts             16309250                       # Number of squashed instructions handled by decode
system.cpu0.decode.UnblockCycles              3995059                       # Number of cycles decode is unblocking
system.cpu0.dtb.accesses                            0                       # DTB accesses
system.cpu0.dtb.hits                                0                       # DTB hits
system.cpu0.dtb.misses                              0                       # DTB misses
system.cpu0.dtb.read_accesses                       0                       # DTB read accesses
system.cpu0.dtb.read_hits                           0                       # DTB read hits
system.cpu0.dtb.read_misses                         0                       # DTB read misses
system.cpu0.dtb.write_accesses                      0                       # DTB write accesses
system.cpu0.dtb.write_hits                          0                       # DTB write hits
system.cpu0.dtb.write_misses                        0                       # DTB write misses
system.cpu0.fetch.Branches                  272832023                       # Number of branches that fetch encountered
system.cpu0.fetch.CacheLines                203257454                       # Number of cache lines fetched
system.cpu0.fetch.Cycles                   1004529269                       # Number of cycles fetch has run and was not squashing or blocked
system.cpu0.fetch.IcacheSquashes              4741061                       # Number of outstanding Icache misses that were squashed
system.cpu0.fetch.IcacheWaitRetryStallCycles          161                       # Number of stall cycles due to full MSHR
system.cpu0.fetch.Insts                    1130799178                       # Number of instructions fetch has processed
system.cpu0.fetch.MiscStallCycles                  43                       # Number of cycles fetch has spent waiting on interrupts, or bad addresses, or out of MSHRs
system.cpu0.fetch.PendingTrapStallCycles          154                       # Number of stall cycles due to pending traps
system.cpu0.fetch.SquashCycles               39573218                       # Number of cycles fetch has spent squashing
system.cpu0.fetch.branchRate                 0.143060                       # Number of branch fetches per cycle
system.cpu0.fetch.icacheStallCycles         728932650                       # Number of cycles fetch is stalled on an Icache miss
system.cpu0.fetch.predictedBranches         157871115                       # Number of branches that fetch has predicted taken
system.cpu0.fetch.rate                       0.592935                       # Number of inst fetches per cycle
system.cpu0.fetch.rateDist::samples        1753248886                       # Number of instructions fetched each cycle (Total)
system.cpu0.fetch.rateDist::mean             0.645493                       # Number of instructions fetched each cycle (Total)
system.cpu0.fetch.rateDist::stdev            0.877731                       # Number of instructions fetched each cycle (Total)
system.cpu0.fetch.rateDist::underflows              0      0.00%      0.00% # Number of instructions fetched each cycle (Total)
system.cpu0.fetch.rateDist::0               933377892     53.24%     53.24% # Number of instructions fetched each cycle (Total)
system.cpu0.fetch.rateDist::1               619570997     35.34%     88.58% # Number of instructions fetched each cycle (Total)
system.cpu0.fetch.rateDist::2               121151690      6.91%     95.49% # Number of instructions fetched each cycle (Total)
system.cpu0.fetch.rateDist::3                59578502      3.40%     98.88% # Number of instructions fetched each cycle (Total)
system.cpu0.fetch.rateDist::4                10840246      0.62%     99.50% # Number of instructions fetched each cycle (Total)
system.cpu0.fetch.rateDist::5                 6632930      0.38%     99.88% # Number of instructions fetched each cycle (Total)
system.cpu0.fetch.rateDist::6                  191258      0.01%     99.89% # Number of instructions fetched each cycle (Total)
system.cpu0.fetch.rateDist::7                 1816531      0.10%     99.99% # Number of instructions fetched each cycle (Total)
system.cpu0.fetch.rateDist::8                   88840      0.01%    100.00% # Number of instructions fetched each cycle (Total)
system.cpu0.fetch.rateDist::overflows               0      0.00%    100.00% # Number of instructions fetched each cycle (Total)
system.cpu0.fetch.rateDist::min_value               0                       # Number of instructions fetched each cycle (Total)
system.cpu0.fetch.rateDist::max_value               8                       # Number of instructions fetched each cycle (Total)
system.cpu0.fetch.rateDist::total          1753248886                       # Number of instructions fetched each cycle (Total)
system.cpu0.fp_regfile_reads                       56                       # number of floating regfile reads
system.cpu0.fp_regfile_writes                      34                       # number of floating regfile writes
system.cpu0.idleCycles                      153872035                       # Total number of cycles that the CPU has spent unscheduled due to idling
system.cpu0.iew.branchMispredicts            12012623                       # Number of branch mispredicts detected at execute
system.cpu0.iew.exec_branches               260881662                       # Number of branches executed
system.cpu0.iew.exec_nop                            0                       # number of nop insts executed
system.cpu0.iew.exec_rate                    0.558507                       # Inst execution rate
system.cpu0.iew.exec_refs                   471511356                       # number of memory reference insts executed
system.cpu0.iew.exec_stores                 129888980                       # Number of stores executed
system.cpu0.iew.exec_swp                            0                       # number of swp insts executed
system.cpu0.iew.iewBlockCycles              158288225                       # Number of cycles IEW is blocking
system.cpu0.iew.iewDispLoadInsts            341852483                       # Number of dispatched load instructions
system.cpu0.iew.iewDispNonSpecInsts            911566                       # Number of dispatched non-speculative instructions
system.cpu0.iew.iewDispSquashedInsts          7221133                       # Number of squashed instructions skipped by dispatch
system.cpu0.iew.iewDispStoreInsts           131912959                       # Number of dispatched store instructions
system.cpu0.iew.iewDispatchedInsts         1075049910                       # Number of instructions dispatched to IQ
system.cpu0.iew.iewExecLoadInsts            341622376                       # Number of load instructions executed
system.cpu0.iew.iewExecSquashedInsts          5165327                       # Number of squashed instructions skipped in execute
system.cpu0.iew.iewExecutedInsts           1065139618                       # Number of executed instructions
system.cpu0.iew.iewIQFullEvents                890155                       # Number of times the IQ has become full, causing a stall
system.cpu0.iew.iewIdleCycles                       0                       # Number of cycles IEW is idle
system.cpu0.iew.iewLSQFullEvents              3601216                       # Number of times the LSQ has become full, causing a stall
system.cpu0.iew.iewSquashCycles              11951498                       # Number of cycles IEW is squashing
system.cpu0.iew.iewUnblockCycles              5557680                       # Number of cycles IEW is unblocking
system.cpu0.iew.lsq.thread0.blockedLoads            0                       # Number of blocked loads due to partial load-store forwarding
system.cpu0.iew.lsq.thread0.cacheBlocked       101146                       # Number of times an access to memory failed due to the cache being blocked
system.cpu0.iew.lsq.thread0.forwLoads        20105981                       # Number of loads that had data forwarded from stores
system.cpu0.iew.lsq.thread0.ignoredResponses        42486                       # Number of memory responses ignored because the instruction is squashed
system.cpu0.iew.lsq.thread0.invAddrLoads            0                       # Number of loads ignored due to an invalid address
system.cpu0.iew.lsq.thread0.invAddrSwpfs            0                       # Number of software prefetches ignored due to an invalid address
system.cpu0.iew.lsq.thread0.memOrderViolation        12490                       # Number of memory ordering violations
system.cpu0.iew.lsq.thread0.rescheduledLoads      4043280                       # Number of loads that were rescheduled
system.cpu0.iew.lsq.thread0.squashedLoads     25401692                       # Number of loads squashed
system.cpu0.iew.lsq.thread0.squashedStores      6141750                       # Number of stores squashed
system.cpu0.iew.memOrderViolationEvents         12490                       # Number of memory order violations
system.cpu0.iew.predictedNotTakenIncorrect      1101905                       # Number of branches that were predicted not taken incorrectly
system.cpu0.iew.predictedTakenIncorrect      10910718                       # Number of branches that were predicted taken incorrectly
system.cpu0.iew.wb_consumers                444618539                       # num instructions consuming a value
system.cpu0.iew.wb_count                   1056448158                       # cumulative count of insts written-back
system.cpu0.iew.wb_fanout                    0.850327                       # average fanout of values written-back
system.cpu0.iew.wb_producers                378071261                       # num instructions producing a value
system.cpu0.iew.wb_rate                      0.553949                       # insts written-back per cycle
system.cpu0.iew.wb_sent                    1056515952                       # cumulative count of insts sent to commit
system.cpu0.int_regfile_reads              1298791789                       # number of integer regfile reads
system.cpu0.int_regfile_writes              674306639                       # number of integer regfile writes
system.cpu0.ipc                              0.533050                       # IPC: Instructions Per Cycle
system.cpu0.ipc_total                        0.533050                       # IPC: Total IPC of All Threads
system.cpu0.iq.FU_type_0::No_OpClass          1816179      0.17%      0.17% # Type of FU issued
system.cpu0.iq.FU_type_0::IntAlu            584337538     54.60%     54.77% # Type of FU issued
system.cpu0.iq.FU_type_0::IntMult             8035918      0.75%     55.52% # Type of FU issued
system.cpu0.iq.FU_type_0::IntDiv              1811528      0.17%     55.69% # Type of FU issued
system.cpu0.iq.FU_type_0::FloatAdd                  0      0.00%     55.69% # Type of FU issued
system.cpu0.iq.FU_type_0::FloatCmp                  6      0.00%     55.69% # Type of FU issued
system.cpu0.iq.FU_type_0::FloatCvt                 16      0.00%     55.69% # Type of FU issued
system.cpu0.iq.FU_type_0::FloatMult                 0      0.00%     55.69% # Type of FU issued
system.cpu0.iq.FU_type_0::FloatMultAcc              0      0.00%     55.69% # Type of FU issued
system.cpu0.iq.FU_type_0::FloatDiv                  2      0.00%     55.69% # Type of FU issued
system.cpu0.iq.FU_type_0::FloatMisc                 6      0.00%     55.69% # Type of FU issued
system.cpu0.iq.FU_type_0::FloatSqrt                 0      0.00%     55.69% # Type of FU issued
system.cpu0.iq.FU_type_0::SimdAdd                   0      0.00%     55.69% # Type of FU issued
system.cpu0.iq.FU_type_0::SimdAddAcc                0      0.00%     55.69% # Type of FU issued
system.cpu0.iq.FU_type_0::SimdAlu                   0      0.00%     55.69% # Type of FU issued
system.cpu0.iq.FU_type_0::SimdCmp                   0      0.00%     55.69% # Type of FU issued
system.cpu0.iq.FU_type_0::SimdCvt                   0      0.00%     55.69% # Type of FU issued
system.cpu0.iq.FU_type_0::SimdMisc                  0      0.00%     55.69% # Type of FU issued
system.cpu0.iq.FU_type_0::SimdMult                  0      0.00%     55.69% # Type of FU issued
system.cpu0.iq.FU_type_0::SimdMultAcc               0      0.00%     55.69% # Type of FU issued
system.cpu0.iq.FU_type_0::SimdShift                 0      0.00%     55.69% # Type of FU issued
system.cpu0.iq.FU_type_0::SimdShiftAcc              0      0.00%     55.69% # Type of FU issued
system.cpu0.iq.FU_type_0::SimdDiv                   0      0.00%     55.69% # Type of FU issued
system.cpu0.iq.FU_type_0::SimdSqrt                  0      0.00%     55.69% # Type of FU issued
system.cpu0.iq.FU_type_0::SimdFloatAdd              0      0.00%     55.69% # Type of FU issued
system.cpu0.iq.FU_type_0::SimdFloatAlu              0      0.00%     55.69% # Type of FU issued
system.cpu0.iq.FU_type_0::SimdFloatCmp              0      0.00%     55.69% # Type of FU issued
system.cpu0.iq.FU_type_0::SimdFloatCvt              0      0.00%     55.69% # Type of FU issued
system.cpu0.iq.FU_type_0::SimdFloatDiv              0      0.00%     55.69% # Type of FU issued
system.cpu0.iq.FU_type_0::SimdFloatMisc             0      0.00%     55.69% # Type of FU issued
system.cpu0.iq.FU_type_0::SimdFloatMult             0      0.00%     55.69% # Type of FU issued
system.cpu0.iq.FU_type_0::SimdFloatMultAcc            0      0.00%     55.69% # Type of FU issued
system.cpu0.iq.FU_type_0::SimdFloatSqrt             0      0.00%     55.69% # Type of FU issued
system.cpu0.iq.FU_type_0::SimdReduceAdd             0      0.00%     55.69% # Type of FU issued
system.cpu0.iq.FU_type_0::SimdReduceAlu             0      0.00%     55.69% # Type of FU issued
system.cpu0.iq.FU_type_0::SimdReduceCmp             0      0.00%     55.69% # Type of FU issued
system.cpu0.iq.FU_type_0::SimdFloatReduceAdd            0      0.00%     55.69% # Type of FU issued
system.cpu0.iq.FU_type_0::SimdFloatReduceCmp            0      0.00%     55.69% # Type of FU issued
system.cpu0.iq.FU_type_0::SimdAes                   0      0.00%     55.69% # Type of FU issued
system.cpu0.iq.FU_type_0::SimdAesMix                0      0.00%     55.69% # Type of FU issued
system.cpu0.iq.FU_type_0::SimdSha1Hash              0      0.00%     55.69% # Type of FU issued
system.cpu0.iq.FU_type_0::SimdSha1Hash2             0      0.00%     55.69% # Type of FU issued
system.cpu0.iq.FU_type_0::SimdSha256Hash            0      0.00%     55.69% # Type of FU issued
system.cpu0.iq.FU_type_0::SimdSha256Hash2            0      0.00%     55.69% # Type of FU issued
system.cpu0.iq.FU_type_0::SimdShaSigma2             0      0.00%     55.69% # Type of FU issued
system.cpu0.iq.FU_type_0::SimdShaSigma3             0      0.00%     55.69% # Type of FU issued
system.cpu0.iq.FU_type_0::SimdPredAlu               0      0.00%     55.69% # Type of FU issued
system.cpu0.iq.FU_type_0::MemRead           344132709     32.15%     87.84% # Type of FU issued
system.cpu0.iq.FU_type_0::MemWrite          130170997     12.16%    100.00% # Type of FU issued
system.cpu0.iq.FU_type_0::FloatMemRead             24      0.00%    100.00% # Type of FU issued
system.cpu0.iq.FU_type_0::FloatMemWrite            23      0.00%    100.00% # Type of FU issued
system.cpu0.iq.FU_type_0::IprAccess                 0      0.00%    100.00% # Type of FU issued
system.cpu0.iq.FU_type_0::InstPrefetch              0      0.00%    100.00% # Type of FU issued
system.cpu0.iq.FU_type_0::total            1070304946                       # Type of FU issued
system.cpu0.iq.fp_alu_accesses                     80                       # Number of floating point alu accesses
system.cpu0.iq.fp_inst_queue_reads                157                       # Number of floating instruction queue reads
system.cpu0.iq.fp_inst_queue_wakeup_accesses           68                       # Number of floating instruction queue wakeup accesses
system.cpu0.iq.fp_inst_queue_writes                89                       # Number of floating instruction queue writes
system.cpu0.iq.fu_busy_cnt                    1272749                       # FU busy when requested
system.cpu0.iq.fu_busy_rate                  0.001189                       # FU busy rate (busy events/executed inst)
system.cpu0.iq.fu_full::No_OpClass                  0      0.00%      0.00% # attempts to use FU when none available
system.cpu0.iq.fu_full::IntAlu                 271906     21.36%     21.36% # attempts to use FU when none available
system.cpu0.iq.fu_full::IntMult                     0      0.00%     21.36% # attempts to use FU when none available
system.cpu0.iq.fu_full::IntDiv                      0      0.00%     21.36% # attempts to use FU when none available
system.cpu0.iq.fu_full::FloatAdd                    0      0.00%     21.36% # attempts to use FU when none available
system.cpu0.iq.fu_full::FloatCmp                    0      0.00%     21.36% # attempts to use FU when none available
system.cpu0.iq.fu_full::FloatCvt                    0      0.00%     21.36% # attempts to use FU when none available
system.cpu0.iq.fu_full::FloatMult                   0      0.00%     21.36% # attempts to use FU when none available
system.cpu0.iq.fu_full::FloatMultAcc                0      0.00%     21.36% # attempts to use FU when none available
system.cpu0.iq.fu_full::FloatDiv                    0      0.00%     21.36% # attempts to use FU when none available
system.cpu0.iq.fu_full::FloatMisc                   0      0.00%     21.36% # attempts to use FU when none available
system.cpu0.iq.fu_full::FloatSqrt                   0      0.00%     21.36% # attempts to use FU when none available
system.cpu0.iq.fu_full::SimdAdd                     0      0.00%     21.36% # attempts to use FU when none available
system.cpu0.iq.fu_full::SimdAddAcc                  0      0.00%     21.36% # attempts to use FU when none available
system.cpu0.iq.fu_full::SimdAlu                     0      0.00%     21.36% # attempts to use FU when none available
system.cpu0.iq.fu_full::SimdCmp                     0      0.00%     21.36% # attempts to use FU when none available
system.cpu0.iq.fu_full::SimdCvt                     0      0.00%     21.36% # attempts to use FU when none available
system.cpu0.iq.fu_full::SimdMisc                    0      0.00%     21.36% # attempts to use FU when none available
system.cpu0.iq.fu_full::SimdMult                    0      0.00%     21.36% # attempts to use FU when none available
system.cpu0.iq.fu_full::SimdMultAcc                 0      0.00%     21.36% # attempts to use FU when none available
system.cpu0.iq.fu_full::SimdShift                   0      0.00%     21.36% # attempts to use FU when none available
system.cpu0.iq.fu_full::SimdShiftAcc                0      0.00%     21.36% # attempts to use FU when none available
system.cpu0.iq.fu_full::SimdDiv                     0      0.00%     21.36% # attempts to use FU when none available
system.cpu0.iq.fu_full::SimdSqrt                    0      0.00%     21.36% # attempts to use FU when none available
system.cpu0.iq.fu_full::SimdFloatAdd                0      0.00%     21.36% # attempts to use FU when none available
system.cpu0.iq.fu_full::SimdFloatAlu                0      0.00%     21.36% # attempts to use FU when none available
system.cpu0.iq.fu_full::SimdFloatCmp                0      0.00%     21.36% # attempts to use FU when none available
system.cpu0.iq.fu_full::SimdFloatCvt                0      0.00%     21.36% # attempts to use FU when none available
system.cpu0.iq.fu_full::SimdFloatDiv                0      0.00%     21.36% # attempts to use FU when none available
system.cpu0.iq.fu_full::SimdFloatMisc               0      0.00%     21.36% # attempts to use FU when none available
system.cpu0.iq.fu_full::SimdFloatMult               0      0.00%     21.36% # attempts to use FU when none available
system.cpu0.iq.fu_full::SimdFloatMultAcc            0      0.00%     21.36% # attempts to use FU when none available
system.cpu0.iq.fu_full::SimdFloatSqrt               0      0.00%     21.36% # attempts to use FU when none available
system.cpu0.iq.fu_full::SimdReduceAdd               0      0.00%     21.36% # attempts to use FU when none available
system.cpu0.iq.fu_full::SimdReduceAlu               0      0.00%     21.36% # attempts to use FU when none available
system.cpu0.iq.fu_full::SimdReduceCmp               0      0.00%     21.36% # attempts to use FU when none available
system.cpu0.iq.fu_full::SimdFloatReduceAdd            0      0.00%     21.36% # attempts to use FU when none available
system.cpu0.iq.fu_full::SimdFloatReduceCmp            0      0.00%     21.36% # attempts to use FU when none available
system.cpu0.iq.fu_full::SimdAes                     0      0.00%     21.36% # attempts to use FU when none available
system.cpu0.iq.fu_full::SimdAesMix                  0      0.00%     21.36% # attempts to use FU when none available
system.cpu0.iq.fu_full::SimdSha1Hash                0      0.00%     21.36% # attempts to use FU when none available
system.cpu0.iq.fu_full::SimdSha1Hash2               0      0.00%     21.36% # attempts to use FU when none available
system.cpu0.iq.fu_full::SimdSha256Hash              0      0.00%     21.36% # attempts to use FU when none available
system.cpu0.iq.fu_full::SimdSha256Hash2             0      0.00%     21.36% # attempts to use FU when none available
system.cpu0.iq.fu_full::SimdShaSigma2               0      0.00%     21.36% # attempts to use FU when none available
system.cpu0.iq.fu_full::SimdShaSigma3               0      0.00%     21.36% # attempts to use FU when none available
system.cpu0.iq.fu_full::SimdPredAlu                 0      0.00%     21.36% # attempts to use FU when none available
system.cpu0.iq.fu_full::MemRead                857868     67.40%     88.77% # attempts to use FU when none available
system.cpu0.iq.fu_full::MemWrite               142972     11.23%    100.00% # attempts to use FU when none available
system.cpu0.iq.fu_full::FloatMemRead                0      0.00%    100.00% # attempts to use FU when none available
system.cpu0.iq.fu_full::FloatMemWrite               3      0.00%    100.00% # attempts to use FU when none available
system.cpu0.iq.fu_full::IprAccess                   0      0.00%    100.00% # attempts to use FU when none available
system.cpu0.iq.fu_full::InstPrefetch                0      0.00%    100.00% # attempts to use FU when none available
system.cpu0.iq.int_alu_accesses            1069761436                       # Number of integer alu accesses
system.cpu0.iq.int_inst_queue_reads        3895210625                       # Number of integer instruction queue reads
system.cpu0.iq.int_inst_queue_wakeup_accesses   1056448090                       # Number of integer instruction queue wakeup accesses
system.cpu0.iq.int_inst_queue_writes       1132611267                       # Number of integer instruction queue writes
system.cpu0.iq.iqInstsAdded                1072323644                       # Number of instructions added to the IQ (excludes non-spec)
system.cpu0.iq.iqInstsIssued               1070304946                       # Number of instructions issued
system.cpu0.iq.iqNonSpecInstsAdded            2726266                       # Number of non-speculative instructions added to the IQ
system.cpu0.iq.iqSquashedInstsExamined       57550027                       # Number of squashed instructions iterated over during squash; mainly for profiling
system.cpu0.iq.iqSquashedInstsIssued            79256                       # Number of squashed instructions issued
system.cpu0.iq.iqSquashedNonSpecRemoved           770                       # Number of squashed non-spec instructions that were removed
system.cpu0.iq.iqSquashedOperandsExamined     21325050                       # Number of squashed operands that are examined and possibly removed from graph
system.cpu0.iq.issued_per_cycle::samples   1753248886                       # Number of insts issued each cycle
system.cpu0.iq.issued_per_cycle::mean        0.610469                       # Number of insts issued each cycle
system.cpu0.iq.issued_per_cycle::stdev       0.804881                       # Number of insts issued each cycle
system.cpu0.iq.issued_per_cycle::underflows            0      0.00%      0.00% # Number of insts issued each cycle
system.cpu0.iq.issued_per_cycle::0          963290643     54.94%     54.94% # Number of insts issued each cycle
system.cpu0.iq.issued_per_cycle::1          566753541     32.33%     87.27% # Number of insts issued each cycle
system.cpu0.iq.issued_per_cycle::2          181189804     10.33%     97.60% # Number of insts issued each cycle
system.cpu0.iq.issued_per_cycle::3           32134784      1.83%     99.44% # Number of insts issued each cycle
system.cpu0.iq.issued_per_cycle::4            5758579      0.33%     99.76% # Number of insts issued each cycle
system.cpu0.iq.issued_per_cycle::5            3352716      0.19%     99.96% # Number of insts issued each cycle
system.cpu0.iq.issued_per_cycle::6             515585      0.03%     99.99% # Number of insts issued each cycle
system.cpu0.iq.issued_per_cycle::7             149833      0.01%     99.99% # Number of insts issued each cycle
system.cpu0.iq.issued_per_cycle::8             103401      0.01%    100.00% # Number of insts issued each cycle
system.cpu0.iq.issued_per_cycle::overflows            0      0.00%    100.00% # Number of insts issued each cycle
system.cpu0.iq.issued_per_cycle::min_value            0                       # Number of insts issued each cycle
system.cpu0.iq.issued_per_cycle::max_value            8                       # Number of insts issued each cycle
system.cpu0.iq.issued_per_cycle::total     1753248886                       # Number of insts issued each cycle
system.cpu0.iq.rate                          0.561215                       # Inst issue rate
system.cpu0.iq.vec_alu_accesses                     0                       # Number of vector alu accesses
system.cpu0.iq.vec_inst_queue_reads                 0                       # Number of vector instruction queue reads
system.cpu0.iq.vec_inst_queue_wakeup_accesses            0                       # Number of vector instruction queue wakeup accesses
system.cpu0.iq.vec_inst_queue_writes                0                       # Number of vector instruction queue writes
system.cpu0.itb.accesses                            0                       # DTB accesses
system.cpu0.itb.hits                                0                       # DTB hits
system.cpu0.itb.misses                              0                       # DTB misses
system.cpu0.itb.read_accesses                       0                       # DTB read accesses
system.cpu0.itb.read_hits                           0                       # DTB read hits
system.cpu0.itb.read_misses                         0                       # DTB read misses
system.cpu0.itb.write_accesses                      0                       # DTB write accesses
system.cpu0.itb.write_hits                          0                       # DTB write hits
system.cpu0.itb.write_misses                        0                       # DTB write misses
system.cpu0.memDep0.conflictingLoads         11284004                       # Number of conflicting loads.
system.cpu0.memDep0.conflictingStores         2221845                       # Number of conflicting stores.
system.cpu0.memDep0.insertedLoads           341852483                       # Number of loads inserted to the mem dependence unit.
system.cpu0.memDep0.insertedStores          131912959                       # Number of stores inserted to the mem dependence unit.
system.cpu0.misc_regfile_reads                   1694                       # number of misc regfile reads
system.cpu0.misc_regfile_writes                    30                       # number of misc regfile writes
system.cpu0.numCycles                      1907120921                       # number of cpu cycles simulated
system.cpu0.numWorkItemsCompleted                   0                       # number of work items this cpu completed
system.cpu0.numWorkItemsStarted                     0                       # number of work items this cpu started
system.cpu0.quiesceCycles                    16760377                       # Total number of cycles that CPU has spent quiesced or waiting for an interrupt
system.cpu0.rename.BlockCycles              170924502                       # Number of cycles rename is blocking
system.cpu0.rename.CommittedMaps            647540343                       # Number of HB maps that are committed
system.cpu0.rename.IQFullEvents               6251155                       # Number of times rename has blocked due to IQ full
system.cpu0.rename.IdleCycles               760993431                       # Number of cycles rename is idle
system.cpu0.rename.LQFullEvents               9444648                       # Number of times rename has blocked due to LQ full
system.cpu0.rename.ROBFullEvents                22298                       # Number of times rename has blocked due to ROB full
system.cpu0.rename.RenameLookups           1335348830                       # Number of register rename lookups that rename has made
system.cpu0.rename.RenamedInsts            1094235345                       # Number of instructions processed by rename
system.cpu0.rename.RenamedOperands          702607415                       # Number of destination operands rename has renamed
system.cpu0.rename.RunCycles                780853963                       # Number of cycles rename is running
system.cpu0.rename.SQFullEvents              12342825                       # Number of times rename has blocked due to SQ full
system.cpu0.rename.SquashCycles              11951498                       # Number of cycles rename is squashing
system.cpu0.rename.UnblockCycles             28209180                       # Number of cycles rename is unblocking
system.cpu0.rename.UndoneMaps                55067067                       # Number of HB maps that are undone due to squashing
system.cpu0.rename.fp_rename_lookups               56                       # Number of floating rename lookups
system.cpu0.rename.int_rename_lookups      1335348774                       # Number of integer rename lookups
system.cpu0.rename.serializeStallCycles        316312                       # count of cycles rename stalled for serializing inst
system.cpu0.rename.serializingInsts              5106                       # count of serializing insts renamed
system.cpu0.rename.skidInsts                 13705322                       # count of insts added to the skid buffer
system.cpu0.rename.tempSerializingInsts          5104                       # count of temporary serializing insts renamed
system.cpu0.rob.rob_reads                  2780127605                       # The number of ROB reads
system.cpu0.rob.rob_writes                 2166067284                       # The number of ROB writes
system.cpu0.timesIdled                       22669261                       # Number of times that the entire CPU went into an idle state and unscheduled itself
system.cpu0.workload.numSyscalls                 1650                       # Number of system calls
system.cpu1.branchPred.BTBCorrect                   0                       # Number of correct BTB predictions (this stat may not work properly.
system.cpu1.branchPred.BTBHitPct            86.111929                       # BTB Hit Percentage
system.cpu1.branchPred.BTBHits                5959463                       # Number of BTB hits
system.cpu1.branchPred.BTBLookups             6920601                       # Number of BTB lookups
system.cpu1.branchPred.RASInCorrect                 0                       # Number of incorrect RAS predictions.
system.cpu1.branchPred.condIncorrect           787195                       # Number of conditional branches incorrect
system.cpu1.branchPred.condPredicted          9746098                       # Number of conditional branches predicted
system.cpu1.branchPred.indirectHits            231333                       # Number of indirect target hits.
system.cpu1.branchPred.indirectLookups         236819                       # Number of indirect predictor lookups.
system.cpu1.branchPred.indirectMisses            5486                       # Number of indirect misses.
system.cpu1.branchPred.lookups               11031749                       # Number of BP lookups
system.cpu1.branchPred.usedRAS                      0                       # Number of times the RAS was used to get a target.
system.cpu1.branchPredindirectMispredicted        13701                       # Number of mispredicted indirect branches.
system.cpu1.commit.amos                        905811                       # Number of atomic instructions committed
system.cpu1.commit.branchMispredicts           633127                       # The number of times a branch was mispredicted
system.cpu1.commit.branches                   8769308                       # Number of branches committed
system.cpu1.commit.bw_lim_events               888083                       # number cycles where commit BW limit reached
system.cpu1.commit.commitNonSpecStalls        2718123                       # The number of times commit has been forced to stall to communicate backwards
system.cpu1.commit.commitSquashedInsts        4928135                       # The number of squashed insts skipped by commit
system.cpu1.commit.committedInsts            37212307                       # Number of instructions committed
system.cpu1.commit.committedOps              38118308                       # Number of ops (including micro ops) committed
system.cpu1.commit.committed_per_cycle::samples    216725484                       # Number of insts commited each cycle
system.cpu1.commit.committed_per_cycle::mean     0.175883                       # Number of insts commited each cycle
system.cpu1.commit.committed_per_cycle::stdev     0.819625                       # Number of insts commited each cycle
system.cpu1.commit.committed_per_cycle::underflows            0      0.00%      0.00% # Number of insts commited each cycle
system.cpu1.commit.committed_per_cycle::0    200873077     92.69%     92.69% # Number of insts commited each cycle
system.cpu1.commit.committed_per_cycle::1      7686130      3.55%     96.23% # Number of insts commited each cycle
system.cpu1.commit.committed_per_cycle::2      2661837      1.23%     97.46% # Number of insts commited each cycle
system.cpu1.commit.committed_per_cycle::3      2613798      1.21%     98.67% # Number of insts commited each cycle
system.cpu1.commit.committed_per_cycle::4       867925      0.40%     99.07% # Number of insts commited each cycle
system.cpu1.commit.committed_per_cycle::5       195258      0.09%     99.16% # Number of insts commited each cycle
system.cpu1.commit.committed_per_cycle::6       861176      0.40%     99.55% # Number of insts commited each cycle
system.cpu1.commit.committed_per_cycle::7        78200      0.04%     99.59% # Number of insts commited each cycle
system.cpu1.commit.committed_per_cycle::8       888083      0.41%    100.00% # Number of insts commited each cycle
system.cpu1.commit.committed_per_cycle::overflows            0      0.00%    100.00% # Number of insts commited each cycle
system.cpu1.commit.committed_per_cycle::min_value            0                       # Number of insts commited each cycle
system.cpu1.commit.committed_per_cycle::max_value            8                       # Number of insts commited each cycle
system.cpu1.commit.committed_per_cycle::total    216725484                       # Number of insts commited each cycle
system.cpu1.commit.fp_insts                        12                       # Number of committed floating point instructions.
system.cpu1.commit.function_calls              378001                       # Number of function calls committed.
system.cpu1.commit.int_insts                 35827424                       # Number of committed integer instructions.
system.cpu1.commit.loads                     10300964                       # Number of loads committed
system.cpu1.commit.membars                    1811685                       # Number of memory barriers committed
system.cpu1.commit.op_class_0::No_OpClass      1811685      4.75%      4.75% # Class of committed instruction
system.cpu1.commit.op_class_0::IntAlu        22372161     58.69%     63.44% # Class of committed instruction
system.cpu1.commit.op_class_0::IntMult             43      0.00%     63.44% # Class of committed instruction
system.cpu1.commit.op_class_0::IntDiv              86      0.00%     63.44% # Class of committed instruction
system.cpu1.commit.op_class_0::FloatAdd             0      0.00%     63.44% # Class of committed instruction
system.cpu1.commit.op_class_0::FloatCmp             0      0.00%     63.44% # Class of committed instruction
system.cpu1.commit.op_class_0::FloatCvt             0      0.00%     63.44% # Class of committed instruction
system.cpu1.commit.op_class_0::FloatMult            0      0.00%     63.44% # Class of committed instruction
system.cpu1.commit.op_class_0::FloatMultAcc            0      0.00%     63.44% # Class of committed instruction
system.cpu1.commit.op_class_0::FloatDiv             0      0.00%     63.44% # Class of committed instruction
system.cpu1.commit.op_class_0::FloatMisc            0      0.00%     63.44% # Class of committed instruction
system.cpu1.commit.op_class_0::FloatSqrt            0      0.00%     63.44% # Class of committed instruction
system.cpu1.commit.op_class_0::SimdAdd              0      0.00%     63.44% # Class of committed instruction
system.cpu1.commit.op_class_0::SimdAddAcc            0      0.00%     63.44% # Class of committed instruction
system.cpu1.commit.op_class_0::SimdAlu              0      0.00%     63.44% # Class of committed instruction
system.cpu1.commit.op_class_0::SimdCmp              0      0.00%     63.44% # Class of committed instruction
system.cpu1.commit.op_class_0::SimdCvt              0      0.00%     63.44% # Class of committed instruction
system.cpu1.commit.op_class_0::SimdMisc             0      0.00%     63.44% # Class of committed instruction
system.cpu1.commit.op_class_0::SimdMult             0      0.00%     63.44% # Class of committed instruction
system.cpu1.commit.op_class_0::SimdMultAcc            0      0.00%     63.44% # Class of committed instruction
system.cpu1.commit.op_class_0::SimdShift            0      0.00%     63.44% # Class of committed instruction
system.cpu1.commit.op_class_0::SimdShiftAcc            0      0.00%     63.44% # Class of committed instruction
system.cpu1.commit.op_class_0::SimdDiv              0      0.00%     63.44% # Class of committed instruction
system.cpu1.commit.op_class_0::SimdSqrt             0      0.00%     63.44% # Class of committed instruction
system.cpu1.commit.op_class_0::SimdFloatAdd            0      0.00%     63.44% # Class of committed instruction
system.cpu1.commit.op_class_0::SimdFloatAlu            0      0.00%     63.44% # Class of committed instruction
system.cpu1.commit.op_class_0::SimdFloatCmp            0      0.00%     63.44% # Class of committed instruction
system.cpu1.commit.op_class_0::SimdFloatCvt            0      0.00%     63.44% # Class of committed instruction
system.cpu1.commit.op_class_0::SimdFloatDiv            0      0.00%     63.44% # Class of committed instruction
system.cpu1.commit.op_class_0::SimdFloatMisc            0      0.00%     63.44% # Class of committed instruction
system.cpu1.commit.op_class_0::SimdFloatMult            0      0.00%     63.44% # Class of committed instruction
system.cpu1.commit.op_class_0::SimdFloatMultAcc            0      0.00%     63.44% # Class of committed instruction
system.cpu1.commit.op_class_0::SimdFloatSqrt            0      0.00%     63.44% # Class of committed instruction
system.cpu1.commit.op_class_0::SimdReduceAdd            0      0.00%     63.44% # Class of committed instruction
system.cpu1.commit.op_class_0::SimdReduceAlu            0      0.00%     63.44% # Class of committed instruction
system.cpu1.commit.op_class_0::SimdReduceCmp            0      0.00%     63.44% # Class of committed instruction
system.cpu1.commit.op_class_0::SimdFloatReduceAdd            0      0.00%     63.44% # Class of committed instruction
system.cpu1.commit.op_class_0::SimdFloatReduceCmp            0      0.00%     63.44% # Class of committed instruction
system.cpu1.commit.op_class_0::SimdAes              0      0.00%     63.44% # Class of committed instruction
system.cpu1.commit.op_class_0::SimdAesMix            0      0.00%     63.44% # Class of committed instruction
system.cpu1.commit.op_class_0::SimdSha1Hash            0      0.00%     63.44% # Class of committed instruction
system.cpu1.commit.op_class_0::SimdSha1Hash2            0      0.00%     63.44% # Class of committed instruction
system.cpu1.commit.op_class_0::SimdSha256Hash            0      0.00%     63.44% # Class of committed instruction
system.cpu1.commit.op_class_0::SimdSha256Hash2            0      0.00%     63.44% # Class of committed instruction
system.cpu1.commit.op_class_0::SimdShaSigma2            0      0.00%     63.44% # Class of committed instruction
system.cpu1.commit.op_class_0::SimdShaSigma3            0      0.00%     63.44% # Class of committed instruction
system.cpu1.commit.op_class_0::SimdPredAlu            0      0.00%     63.44% # Class of committed instruction
system.cpu1.commit.op_class_0::MemRead       11206775     29.40%     92.84% # Class of committed instruction
system.cpu1.commit.op_class_0::MemWrite       2727546      7.16%    100.00% # Class of committed instruction
system.cpu1.commit.op_class_0::FloatMemRead            0      0.00%    100.00% # Class of committed instruction
system.cpu1.commit.op_class_0::FloatMemWrite           12      0.00%    100.00% # Class of committed instruction
system.cpu1.commit.op_class_0::IprAccess            0      0.00%    100.00% # Class of committed instruction
system.cpu1.commit.op_class_0::InstPrefetch            0      0.00%    100.00% # Class of committed instruction
system.cpu1.commit.op_class_0::total         38118308                       # Class of committed instruction
system.cpu1.commit.refs                      13934333                       # Number of memory references committed
system.cpu1.commit.swp_count                        0                       # Number of s/w prefetches committed
system.cpu1.commit.vec_insts                        0                       # Number of committed Vector instructions.
system.cpu1.committedInsts                   37212307                       # Number of Instructions Simulated
system.cpu1.committedOps                     38118308                       # Number of Ops (including micro ops) Simulated
system.cpu1.cpi                              5.887169                       # CPI: Cycles Per Instruction
system.cpu1.cpi_total                        5.887169                       # CPI: Total CPI of All Threads
system.cpu1.decode.BlockedCycles            190426968                       # Number of cycles decode is blocked
system.cpu1.decode.BranchMispred               160279                       # Number of times decode detected a branch misprediction
system.cpu1.decode.BranchResolved             5671653                       # Number of times decode resolved a branch
system.cpu1.decode.DecodedInsts              45501645                       # Number of instructions handled by decode
system.cpu1.decode.IdleCycles                 7274009                       # Number of cycles decode is idle
system.cpu1.decode.RunCycles                 17279733                       # Number of cycles decode is running
system.cpu1.decode.SquashCycles                634246                       # Number of cycles decode is squashing
system.cpu1.decode.SquashedInsts               328010                       # Number of squashed instructions handled by decode
system.cpu1.decode.UnblockCycles              2119058                       # Number of cycles decode is unblocking
system.cpu1.dtb.accesses                            0                       # DTB accesses
system.cpu1.dtb.hits                                0                       # DTB hits
system.cpu1.dtb.misses                              0                       # DTB misses
system.cpu1.dtb.read_accesses                       0                       # DTB read accesses
system.cpu1.dtb.read_hits                           0                       # DTB read hits
system.cpu1.dtb.read_misses                         0                       # DTB read misses
system.cpu1.dtb.write_accesses                      0                       # DTB write accesses
system.cpu1.dtb.write_hits                          0                       # DTB write hits
system.cpu1.dtb.write_misses                        0                       # DTB write misses
system.cpu1.fetch.Branches                   11031749                       # Number of branches that fetch encountered
system.cpu1.fetch.CacheLines                  6205651                       # Number of cache lines fetched
system.cpu1.fetch.Cycles                    209571566                       # Number of cycles fetch has run and was not squashing or blocked
system.cpu1.fetch.IcacheSquashes               121672                       # Number of outstanding Icache misses that were squashed
system.cpu1.fetch.IcacheWaitRetryStallCycles           13                       # Number of stall cycles due to full MSHR
system.cpu1.fetch.Insts                      46351998                       # Number of instructions fetch has processed
system.cpu1.fetch.MiscStallCycles                   2                       # Number of cycles fetch has spent waiting on interrupts, or bad addresses, or out of MSHRs
system.cpu1.fetch.SquashCycles                1576628                       # Number of cycles fetch has spent squashing
system.cpu1.fetch.branchRate                 0.050356                       # Number of branch fetches per cycle
system.cpu1.fetch.icacheStallCycles           7374119                       # Number of cycles fetch is stalled on an Icache miss
system.cpu1.fetch.predictedBranches           6190796                       # Number of branches that fetch has predicted taken
system.cpu1.fetch.rate                       0.211580                       # Number of inst fetches per cycle
system.cpu1.fetch.rateDist::samples         217734014                       # Number of instructions fetched each cycle (Total)
system.cpu1.fetch.rateDist::mean             0.217049                       # Number of instructions fetched each cycle (Total)
system.cpu1.fetch.rateDist::stdev            0.654792                       # Number of instructions fetched each cycle (Total)
system.cpu1.fetch.rateDist::underflows              0      0.00%      0.00% # Number of instructions fetched each cycle (Total)
system.cpu1.fetch.rateDist::0               188867611     86.74%     86.74% # Number of instructions fetched each cycle (Total)
system.cpu1.fetch.rateDist::1                17330856      7.96%     94.70% # Number of instructions fetched each cycle (Total)
system.cpu1.fetch.rateDist::2                 6766610      3.11%     97.81% # Number of instructions fetched each cycle (Total)
system.cpu1.fetch.rateDist::3                 3258208      1.50%     99.31% # Number of instructions fetched each cycle (Total)
system.cpu1.fetch.rateDist::4                 1140139      0.52%     99.83% # Number of instructions fetched each cycle (Total)
system.cpu1.fetch.rateDist::5                  200357      0.09%     99.92% # Number of instructions fetched each cycle (Total)
system.cpu1.fetch.rateDist::6                  151331      0.07%     99.99% # Number of instructions fetched each cycle (Total)
system.cpu1.fetch.rateDist::7                    1229      0.00%     99.99% # Number of instructions fetched each cycle (Total)
system.cpu1.fetch.rateDist::8                   17673      0.01%    100.00% # Number of instructions fetched each cycle (Total)
system.cpu1.fetch.rateDist::overflows               0      0.00%    100.00% # Number of instructions fetched each cycle (Total)
system.cpu1.fetch.rateDist::min_value               0                       # Number of instructions fetched each cycle (Total)
system.cpu1.fetch.rateDist::max_value               8                       # Number of instructions fetched each cycle (Total)
system.cpu1.fetch.rateDist::total           217734014                       # Number of instructions fetched each cycle (Total)
system.cpu1.fp_regfile_reads                       12                       # number of floating regfile reads
system.cpu1.idleCycles                        1341135                       # Total number of cycles that the CPU has spent unscheduled due to idling
system.cpu1.iew.branchMispredicts              675071                       # Number of branch mispredicts detected at execute
system.cpu1.iew.exec_branches                 9404281                       # Number of branches executed
system.cpu1.iew.exec_nop                            0                       # number of nop insts executed
system.cpu1.iew.exec_rate                    0.188943                       # Inst execution rate
system.cpu1.iew.exec_refs                    15078187                       # number of memory reference insts executed
system.cpu1.iew.exec_stores                   3887223                       # Number of stores executed
system.cpu1.iew.exec_swp                            0                       # number of swp insts executed
system.cpu1.iew.iewBlockCycles              164727268                       # Number of cycles IEW is blocking
system.cpu1.iew.iewDispLoadInsts             11474459                       # Number of dispatched load instructions
system.cpu1.iew.iewDispNonSpecInsts            906637                       # Number of dispatched non-speculative instructions
system.cpu1.iew.iewDispSquashedInsts           682227                       # Number of squashed instructions skipped by dispatch
system.cpu1.iew.iewDispStoreInsts             4107975                       # Number of dispatched store instructions
system.cpu1.iew.iewDispatchedInsts           43039921                       # Number of instructions dispatched to IQ
system.cpu1.iew.iewExecLoadInsts             11190964                       # Number of load instructions executed
system.cpu1.iew.iewExecSquashedInsts           610443                       # Number of squashed instructions skipped in execute
system.cpu1.iew.iewExecutedInsts             41392704                       # Number of executed instructions
system.cpu1.iew.iewIQFullEvents                592706                       # Number of times the IQ has become full, causing a stall
system.cpu1.iew.iewIdleCycles                       0                       # Number of cycles IEW is idle
system.cpu1.iew.iewLSQFullEvents              1024166                       # Number of times the LSQ has become full, causing a stall
system.cpu1.iew.iewSquashCycles                634246                       # Number of cycles IEW is squashing
system.cpu1.iew.iewUnblockCycles              2728825                       # Number of cycles IEW is unblocking
system.cpu1.iew.lsq.thread0.blockedLoads            0                       # Number of blocked loads due to partial load-store forwarding
system.cpu1.iew.lsq.thread0.cacheBlocked        27999                       # Number of times an access to memory failed due to the cache being blocked
system.cpu1.iew.lsq.thread0.forwLoads          294381                       # Number of loads that had data forwarded from stores
system.cpu1.iew.lsq.thread0.ignoredResponses         8004                       # Number of memory responses ignored because the instruction is squashed
system.cpu1.iew.lsq.thread0.invAddrLoads            0                       # Number of loads ignored due to an invalid address
system.cpu1.iew.lsq.thread0.invAddrSwpfs            0                       # Number of software prefetches ignored due to an invalid address
system.cpu1.iew.lsq.thread0.memOrderViolation         1499                       # Number of memory ordering violations
system.cpu1.iew.lsq.thread0.rescheduledLoads         4475                       # Number of loads that were rescheduled
system.cpu1.iew.lsq.thread0.squashedLoads      1173495                       # Number of loads squashed
system.cpu1.iew.lsq.thread0.squashedStores       474606                       # Number of stores squashed
system.cpu1.iew.memOrderViolationEvents          1499                       # Number of memory order violations
system.cpu1.iew.predictedNotTakenIncorrect       240532                       # Number of branches that were predicted not taken incorrectly
system.cpu1.iew.predictedTakenIncorrect        434539                       # Number of branches that were predicted taken incorrectly
system.cpu1.iew.wb_consumers                 23397039                       # num instructions consuming a value
system.cpu1.iew.wb_count                     40902687                       # cumulative count of insts written-back
system.cpu1.iew.wb_fanout                    0.825687                       # average fanout of values written-back
system.cpu1.iew.wb_producers                 19318624                       # num instructions producing a value
system.cpu1.iew.wb_rate                      0.186706                       # insts written-back per cycle
system.cpu1.iew.wb_sent                      40921881                       # cumulative count of insts sent to commit
system.cpu1.int_regfile_reads                52399571                       # number of integer regfile reads
system.cpu1.int_regfile_writes               26935933                       # number of integer regfile writes
system.cpu1.ipc                              0.169861                       # IPC: Instructions Per Cycle
system.cpu1.ipc_total                        0.169861                       # IPC: Total IPC of All Threads
system.cpu1.iq.FU_type_0::No_OpClass          1811898      4.31%      4.31% # Type of FU issued
system.cpu1.iq.FU_type_0::IntAlu             24912709     59.31%     63.63% # Type of FU issued
system.cpu1.iq.FU_type_0::IntMult                  48      0.00%     63.63% # Type of FU issued
system.cpu1.iq.FU_type_0::IntDiv                   86      0.00%     63.63% # Type of FU issued
system.cpu1.iq.FU_type_0::FloatAdd                  0      0.00%     63.63% # Type of FU issued
system.cpu1.iq.FU_type_0::FloatCmp                  0      0.00%     63.63% # Type of FU issued
system.cpu1.iq.FU_type_0::FloatCvt                  0      0.00%     63.63% # Type of FU issued
system.cpu1.iq.FU_type_0::FloatMult                 0      0.00%     63.63% # Type of FU issued
system.cpu1.iq.FU_type_0::FloatMultAcc              0      0.00%     63.63% # Type of FU issued
system.cpu1.iq.FU_type_0::FloatDiv                  0      0.00%     63.63% # Type of FU issued
system.cpu1.iq.FU_type_0::FloatMisc                 0      0.00%     63.63% # Type of FU issued
system.cpu1.iq.FU_type_0::FloatSqrt                 0      0.00%     63.63% # Type of FU issued
system.cpu1.iq.FU_type_0::SimdAdd                   0      0.00%     63.63% # Type of FU issued
system.cpu1.iq.FU_type_0::SimdAddAcc                0      0.00%     63.63% # Type of FU issued
system.cpu1.iq.FU_type_0::SimdAlu                   0      0.00%     63.63% # Type of FU issued
system.cpu1.iq.FU_type_0::SimdCmp                   0      0.00%     63.63% # Type of FU issued
system.cpu1.iq.FU_type_0::SimdCvt                   0      0.00%     63.63% # Type of FU issued
system.cpu1.iq.FU_type_0::SimdMisc                  0      0.00%     63.63% # Type of FU issued
system.cpu1.iq.FU_type_0::SimdMult                  0      0.00%     63.63% # Type of FU issued
system.cpu1.iq.FU_type_0::SimdMultAcc               0      0.00%     63.63% # Type of FU issued
system.cpu1.iq.FU_type_0::SimdShift                 0      0.00%     63.63% # Type of FU issued
system.cpu1.iq.FU_type_0::SimdShiftAcc              0      0.00%     63.63% # Type of FU issued
system.cpu1.iq.FU_type_0::SimdDiv                   0      0.00%     63.63% # Type of FU issued
system.cpu1.iq.FU_type_0::SimdSqrt                  0      0.00%     63.63% # Type of FU issued
system.cpu1.iq.FU_type_0::SimdFloatAdd              0      0.00%     63.63% # Type of FU issued
system.cpu1.iq.FU_type_0::SimdFloatAlu              0      0.00%     63.63% # Type of FU issued
system.cpu1.iq.FU_type_0::SimdFloatCmp              0      0.00%     63.63% # Type of FU issued
system.cpu1.iq.FU_type_0::SimdFloatCvt              0      0.00%     63.63% # Type of FU issued
system.cpu1.iq.FU_type_0::SimdFloatDiv              0      0.00%     63.63% # Type of FU issued
system.cpu1.iq.FU_type_0::SimdFloatMisc             0      0.00%     63.63% # Type of FU issued
system.cpu1.iq.FU_type_0::SimdFloatMult             0      0.00%     63.63% # Type of FU issued
system.cpu1.iq.FU_type_0::SimdFloatMultAcc            0      0.00%     63.63% # Type of FU issued
system.cpu1.iq.FU_type_0::SimdFloatSqrt             0      0.00%     63.63% # Type of FU issued
system.cpu1.iq.FU_type_0::SimdReduceAdd             0      0.00%     63.63% # Type of FU issued
system.cpu1.iq.FU_type_0::SimdReduceAlu             0      0.00%     63.63% # Type of FU issued
system.cpu1.iq.FU_type_0::SimdReduceCmp             0      0.00%     63.63% # Type of FU issued
system.cpu1.iq.FU_type_0::SimdFloatReduceAdd            0      0.00%     63.63% # Type of FU issued
system.cpu1.iq.FU_type_0::SimdFloatReduceCmp            0      0.00%     63.63% # Type of FU issued
system.cpu1.iq.FU_type_0::SimdAes                   0      0.00%     63.63% # Type of FU issued
system.cpu1.iq.FU_type_0::SimdAesMix                0      0.00%     63.63% # Type of FU issued
system.cpu1.iq.FU_type_0::SimdSha1Hash              0      0.00%     63.63% # Type of FU issued
system.cpu1.iq.FU_type_0::SimdSha1Hash2             0      0.00%     63.63% # Type of FU issued
system.cpu1.iq.FU_type_0::SimdSha256Hash            0      0.00%     63.63% # Type of FU issued
system.cpu1.iq.FU_type_0::SimdSha256Hash2            0      0.00%     63.63% # Type of FU issued
system.cpu1.iq.FU_type_0::SimdShaSigma2             0      0.00%     63.63% # Type of FU issued
system.cpu1.iq.FU_type_0::SimdShaSigma3             0      0.00%     63.63% # Type of FU issued
system.cpu1.iq.FU_type_0::SimdPredAlu               0      0.00%     63.63% # Type of FU issued
system.cpu1.iq.FU_type_0::MemRead            12254141     29.17%     92.80% # Type of FU issued
system.cpu1.iq.FU_type_0::MemWrite            3024253      7.20%    100.00% # Type of FU issued
system.cpu1.iq.FU_type_0::FloatMemRead              0      0.00%    100.00% # Type of FU issued
system.cpu1.iq.FU_type_0::FloatMemWrite            12      0.00%    100.00% # Type of FU issued
system.cpu1.iq.FU_type_0::IprAccess                 0      0.00%    100.00% # Type of FU issued
system.cpu1.iq.FU_type_0::InstPrefetch              0      0.00%    100.00% # Type of FU issued
system.cpu1.iq.FU_type_0::total              42003147                       # Type of FU issued
system.cpu1.iq.fp_alu_accesses                     15                       # Number of floating point alu accesses
system.cpu1.iq.fp_inst_queue_reads                 27                       # Number of floating instruction queue reads
system.cpu1.iq.fp_inst_queue_wakeup_accesses           12                       # Number of floating instruction queue wakeup accesses
system.cpu1.iq.fp_inst_queue_writes                12                       # Number of floating instruction queue writes
system.cpu1.iq.fu_busy_cnt                    1051742                       # FU busy when requested
system.cpu1.iq.fu_busy_rate                  0.025040                       # FU busy rate (busy events/executed inst)
system.cpu1.iq.fu_full::No_OpClass                  0      0.00%      0.00% # attempts to use FU when none available
system.cpu1.iq.fu_full::IntAlu                 213319     20.28%     20.28% # attempts to use FU when none available
system.cpu1.iq.fu_full::IntMult                     0      0.00%     20.28% # attempts to use FU when none available
system.cpu1.iq.fu_full::IntDiv                      0      0.00%     20.28% # attempts to use FU when none available
system.cpu1.iq.fu_full::FloatAdd                    0      0.00%     20.28% # attempts to use FU when none available
system.cpu1.iq.fu_full::FloatCmp                    0      0.00%     20.28% # attempts to use FU when none available
system.cpu1.iq.fu_full::FloatCvt                    0      0.00%     20.28% # attempts to use FU when none available
system.cpu1.iq.fu_full::FloatMult                   0      0.00%     20.28% # attempts to use FU when none available
system.cpu1.iq.fu_full::FloatMultAcc                0      0.00%     20.28% # attempts to use FU when none available
system.cpu1.iq.fu_full::FloatDiv                    0      0.00%     20.28% # attempts to use FU when none available
system.cpu1.iq.fu_full::FloatMisc                   0      0.00%     20.28% # attempts to use FU when none available
system.cpu1.iq.fu_full::FloatSqrt                   0      0.00%     20.28% # attempts to use FU when none available
system.cpu1.iq.fu_full::SimdAdd                     0      0.00%     20.28% # attempts to use FU when none available
system.cpu1.iq.fu_full::SimdAddAcc                  0      0.00%     20.28% # attempts to use FU when none available
system.cpu1.iq.fu_full::SimdAlu                     0      0.00%     20.28% # attempts to use FU when none available
system.cpu1.iq.fu_full::SimdCmp                     0      0.00%     20.28% # attempts to use FU when none available
system.cpu1.iq.fu_full::SimdCvt                     0      0.00%     20.28% # attempts to use FU when none available
system.cpu1.iq.fu_full::SimdMisc                    0      0.00%     20.28% # attempts to use FU when none available
system.cpu1.iq.fu_full::SimdMult                    0      0.00%     20.28% # attempts to use FU when none available
system.cpu1.iq.fu_full::SimdMultAcc                 0      0.00%     20.28% # attempts to use FU when none available
system.cpu1.iq.fu_full::SimdShift                   0      0.00%     20.28% # attempts to use FU when none available
system.cpu1.iq.fu_full::SimdShiftAcc                0      0.00%     20.28% # attempts to use FU when none available
system.cpu1.iq.fu_full::SimdDiv                     0      0.00%     20.28% # attempts to use FU when none available
system.cpu1.iq.fu_full::SimdSqrt                    0      0.00%     20.28% # attempts to use FU when none available
system.cpu1.iq.fu_full::SimdFloatAdd                0      0.00%     20.28% # attempts to use FU when none available
system.cpu1.iq.fu_full::SimdFloatAlu                0      0.00%     20.28% # attempts to use FU when none available
system.cpu1.iq.fu_full::SimdFloatCmp                0      0.00%     20.28% # attempts to use FU when none available
system.cpu1.iq.fu_full::SimdFloatCvt                0      0.00%     20.28% # attempts to use FU when none available
system.cpu1.iq.fu_full::SimdFloatDiv                0      0.00%     20.28% # attempts to use FU when none available
system.cpu1.iq.fu_full::SimdFloatMisc               0      0.00%     20.28% # attempts to use FU when none available
system.cpu1.iq.fu_full::SimdFloatMult               0      0.00%     20.28% # attempts to use FU when none available
system.cpu1.iq.fu_full::SimdFloatMultAcc            0      0.00%     20.28% # attempts to use FU when none available
system.cpu1.iq.fu_full::SimdFloatSqrt               0      0.00%     20.28% # attempts to use FU when none available
system.cpu1.iq.fu_full::SimdReduceAdd               0      0.00%     20.28% # attempts to use FU when none available
system.cpu1.iq.fu_full::SimdReduceAlu               0      0.00%     20.28% # attempts to use FU when none available
system.cpu1.iq.fu_full::SimdReduceCmp               0      0.00%     20.28% # attempts to use FU when none available
system.cpu1.iq.fu_full::SimdFloatReduceAdd            0      0.00%     20.28% # attempts to use FU when none available
system.cpu1.iq.fu_full::SimdFloatReduceCmp            0      0.00%     20.28% # attempts to use FU when none available
system.cpu1.iq.fu_full::SimdAes                     0      0.00%     20.28% # attempts to use FU when none available
system.cpu1.iq.fu_full::SimdAesMix                  0      0.00%     20.28% # attempts to use FU when none available
system.cpu1.iq.fu_full::SimdSha1Hash                0      0.00%     20.28% # attempts to use FU when none available
system.cpu1.iq.fu_full::SimdSha1Hash2               0      0.00%     20.28% # attempts to use FU when none available
system.cpu1.iq.fu_full::SimdSha256Hash              0      0.00%     20.28% # attempts to use FU when none available
system.cpu1.iq.fu_full::SimdSha256Hash2             0      0.00%     20.28% # attempts to use FU when none available
system.cpu1.iq.fu_full::SimdShaSigma2               0      0.00%     20.28% # attempts to use FU when none available
system.cpu1.iq.fu_full::SimdShaSigma3               0      0.00%     20.28% # attempts to use FU when none available
system.cpu1.iq.fu_full::SimdPredAlu                 0      0.00%     20.28% # attempts to use FU when none available
system.cpu1.iq.fu_full::MemRead                742332     70.58%     90.86% # attempts to use FU when none available
[...]
system.cpu1.dcache.WriteReq_avg_mshr_miss_latency::total 86799.953165                       # average WriteReq mshr miss latency
system.cpu1.dcache.LoadLockedReq_hits::.cpu1.data         7718                       # number of LoadLockedReq hits
system.cpu1.dcache.LoadLockedReq_hits::total         7718                       # number of LoadLockedReq hits
system.cpu1.dcache.LoadLockedReq_misses::.cpu1.data         1925                       # number of LoadLockedReq misses
system.cpu1.dcache.LoadLockedReq_misses::total         1925                       # number of LoadLockedReq misses
system.cpu1.dcache.LoadLockedReq_miss_latency::.cpu1.data     36243500                       # number of LoadLockedReq miss cycles
system.cpu1.dcache.LoadLockedReq_miss_latency::total     36243500                       # number of LoadLockedReq miss cycles
system.cpu1.dcache.LoadLockedReq_accesses::.cpu1.data         9643                       # number of LoadLockedReq accesses(hits+misses)
system.cpu1.dcache.LoadLockedReq_accesses::total         9643                       # number of LoadLockedReq accesses(hits+misses)
system.cpu1.dcache.LoadLockedReq_miss_rate::.cpu1.data     0.199627                       # miss rate for LoadLockedReq accesses
system.cpu1.dcache.LoadLockedReq_miss_rate::total     0.199627                       # miss rate for LoadLockedReq accesses
system.cpu1.dcache.LoadLockedReq_avg_miss_latency::.cpu1.data 18827.792208                       # average LoadLockedReq miss latency
system.cpu1.dcache.LoadLockedReq_avg_miss_latency::total 18827.792208                       # average LoadLockedReq miss latency
system.cpu1.dcache.LoadLockedReq_mshr_hits::.cpu1.data          441                       # number of LoadLockedReq MSHR hits
system.cpu1.dcache.LoadLockedReq_mshr_hits::total          441                       # number of LoadLockedReq MSHR hits
system.cpu1.dcache.LoadLockedReq_mshr_misses::.cpu1.data         1484                       # number of LoadLockedReq MSHR misses
system.cpu1.dcache.LoadLockedReq_mshr_misses::total         1484                       # number of LoadLockedReq MSHR misses
system.cpu1.dcache.LoadLockedReq_mshr_miss_latency::.cpu1.data     22640500                       # number of LoadLockedReq MSHR miss cycles
system.cpu1.dcache.LoadLockedReq_mshr_miss_latency::total     22640500                       # number of LoadLockedReq MSHR miss cycles
system.cpu1.dcache.LoadLockedReq_mshr_miss_rate::.cpu1.data     0.153894                       # mshr miss rate for LoadLockedReq accesses
system.cpu1.dcache.LoadLockedReq_mshr_miss_rate::total     0.153894                       # mshr miss rate for LoadLockedReq accesses
system.cpu1.dcache.LoadLockedReq_avg_mshr_miss_latency::.cpu1.data 15256.401617                       # average LoadLockedReq mshr miss latency
system.cpu1.dcache.LoadLockedReq_avg_mshr_miss_latency::total 15256.401617                       # average LoadLockedReq mshr miss latency
system.cpu1.dcache.StoreCondReq_hits::.cpu1.data         3608                       # number of StoreCondReq hits
system.cpu1.dcache.StoreCondReq_hits::total         3608                       # number of StoreCondReq hits
system.cpu1.dcache.StoreCondReq_misses::.cpu1.data         3433                       # number of StoreCondReq misses
system.cpu1.dcache.StoreCondReq_misses::total         3433                       # number of StoreCondReq misses
system.cpu1.dcache.StoreCondReq_miss_latency::.cpu1.data     26660000                       # number of StoreCondReq miss cycles
system.cpu1.dcache.StoreCondReq_miss_latency::total     26660000                       # number of StoreCondReq miss cycles
system.cpu1.dcache.StoreCondReq_accesses::.cpu1.data         7041                       # number of StoreCondReq accesses(hits+misses)
system.cpu1.dcache.StoreCondReq_accesses::total         7041                       # number of StoreCondReq accesses(hits+misses)
system.cpu1.dcache.StoreCondReq_miss_rate::.cpu1.data     0.487573                       # miss rate for StoreCondReq accesses
system.cpu1.dcache.StoreCondReq_miss_rate::total     0.487573                       # miss rate for StoreCondReq accesses
system.cpu1.dcache.StoreCondReq_avg_miss_latency::.cpu1.data  7765.802505                       # average StoreCondReq miss latency
system.cpu1.dcache.StoreCondReq_avg_miss_latency::total  7765.802505                       # average StoreCondReq miss latency
system.cpu1.dcache.StoreCondReq_mshr_misses::.cpu1.data         3315                       # number of StoreCondReq MSHR misses
system.cpu1.dcache.StoreCondReq_mshr_misses::total         3315                       # number of StoreCondReq MSHR misses
system.cpu1.dcache.StoreCondReq_mshr_miss_latency::.cpu1.data     23571000                       # number of StoreCondReq MSHR miss cycles
system.cpu1.dcache.StoreCondReq_mshr_miss_latency::total     23571000                       # number of StoreCondReq MSHR miss cycles
system.cpu1.dcache.StoreCondReq_mshr_miss_rate::.cpu1.data     0.470814                       # mshr miss rate for StoreCondReq accesses
system.cpu1.dcache.StoreCondReq_mshr_miss_rate::total     0.470814                       # mshr miss rate for StoreCondReq accesses
system.cpu1.dcache.StoreCondReq_avg_mshr_miss_latency::.cpu1.data  7110.407240                       # average StoreCondReq mshr miss latency
system.cpu1.dcache.StoreCondReq_avg_mshr_miss_latency::total  7110.407240                       # average StoreCondReq mshr miss latency
system.cpu1.dcache.StoreCondFailReq_miss_latency::.cpu1.data      2668000                       # number of StoreCondFailReq miss cycles
system.cpu1.dcache.StoreCondFailReq_miss_latency::total      2668000                       # number of StoreCondFailReq miss cycles
system.cpu1.dcache.StoreCondFailReq_avg_miss_latency::.cpu1.data          inf                       # average StoreCondFailReq miss latency
system.cpu1.dcache.StoreCondFailReq_avg_miss_latency::total          inf                       # average StoreCondFailReq miss latency
system.cpu1.dcache.StoreCondFailReq_mshr_miss_latency::.cpu1.data      2442000                       # number of StoreCondFailReq MSHR miss cycles
system.cpu1.dcache.StoreCondFailReq_mshr_miss_latency::total      2442000                       # number of StoreCondFailReq MSHR miss cycles
system.cpu1.dcache.StoreCondFailReq_avg_mshr_miss_latency::.cpu1.data          inf                       # average StoreCondFailReq mshr miss latency
system.cpu1.dcache.StoreCondFailReq_avg_mshr_miss_latency::total          inf                       # average StoreCondFailReq mshr miss latency
system.cpu1.dcache.SwapReq_hits::.cpu1.data         2254                       # number of SwapReq hits
system.cpu1.dcache.SwapReq_hits::total           2254                       # number of SwapReq hits
system.cpu1.dcache.SwapReq_misses::.cpu1.data       100519                       # number of SwapReq misses
system.cpu1.dcache.SwapReq_misses::total       100519                       # number of SwapReq misses
system.cpu1.dcache.SwapReq_miss_latency::.cpu1.data   3361918499                       # number of SwapReq miss cycles
system.cpu1.dcache.SwapReq_miss_latency::total   3361918499                       # number of SwapReq miss cycles
system.cpu1.dcache.SwapReq_accesses::.cpu1.data       102773                       # number of SwapReq accesses(hits+misses)
system.cpu1.dcache.SwapReq_accesses::total       102773                       # number of SwapReq accesses(hits+misses)
system.cpu1.dcache.SwapReq_miss_rate::.cpu1.data     0.978068                       # miss rate for SwapReq accesses
system.cpu1.dcache.SwapReq_miss_rate::total     0.978068                       # miss rate for SwapReq accesses
system.cpu1.dcache.SwapReq_avg_miss_latency::.cpu1.data 33445.602314                       # average SwapReq miss latency
system.cpu1.dcache.SwapReq_avg_miss_latency::total 33445.602314                       # average SwapReq miss latency
system.cpu1.dcache.SwapReq_mshr_hits::.cpu1.data           25                       # number of SwapReq MSHR hits
system.cpu1.dcache.SwapReq_mshr_hits::total           25                       # number of SwapReq MSHR hits
system.cpu1.dcache.SwapReq_mshr_misses::.cpu1.data       100494                       # number of SwapReq MSHR misses
system.cpu1.dcache.SwapReq_mshr_misses::total       100494                       # number of SwapReq MSHR misses
system.cpu1.dcache.SwapReq_mshr_miss_latency::.cpu1.data   3261390499                       # number of SwapReq MSHR miss cycles
system.cpu1.dcache.SwapReq_mshr_miss_latency::total   3261390499                       # number of SwapReq MSHR miss cycles
system.cpu1.dcache.SwapReq_mshr_miss_rate::.cpu1.data     0.977825                       # mshr miss rate for SwapReq accesses
system.cpu1.dcache.SwapReq_mshr_miss_rate::total     0.977825                       # mshr miss rate for SwapReq accesses
system.cpu1.dcache.SwapReq_avg_mshr_miss_latency::.cpu1.data 32453.584284                       # average SwapReq mshr miss latency
system.cpu1.dcache.SwapReq_avg_mshr_miss_latency::total 32453.584284                       # average SwapReq mshr miss latency
system.cpu1.dcache.tags.pwrStateResidencyTicks::UNDEFINED 1938043420500                       # Cumulative time (in ticks) in various power states
system.cpu1.dcache.tags.tagsinuse           31.956861                       # Cycle average of tags in use
system.cpu1.dcache.tags.total_refs          151368036                       # Total number of references to valid blocks.
system.cpu1.dcache.tags.sampled_refs         63261352                       # Sample count of references to valid blocks.
system.cpu1.dcache.tags.avg_refs             2.392741                       # Average number of references to valid blocks.
system.cpu1.dcache.tags.warmup_cycle                0                       # Cycle when the warmup percentage was hit.
system.cpu1.dcache.tags.occ_blocks::.cpu1.data    31.956861                       # Average occupied blocks per requestor
system.cpu1.dcache.tags.occ_percent::.cpu1.data     0.998652                       # Average percentage of cache occupancy
system.cpu1.dcache.tags.occ_percent::total     0.998652                       # Average percentage of cache occupancy
system.cpu1.dcache.tags.occ_task_id_blocks::1024           26                       # Occupied blocks per task id
system.cpu1.dcache.tags.age_task_id_blocks_1024::1           26                       # Occupied blocks per task id
system.cpu1.dcache.tags.occ_task_id_percent::1024     0.812500                       # Percentage of cache occupancy per task id
system.cpu1.dcache.tags.tag_accesses        467241281                       # Number of tag accesses
system.cpu1.dcache.tags.data_accesses       467241281                       # Number of data accesses
system.cpu_clk_domain.clock                       500                       # Clock period in ticks
system.tol2bus.pwrStateResidencyTicks::UNDEFINED 1938043420500                       # Cumulative time (in ticks) in various power states
system.tol2bus.trans_dist::ReadResp         250064261                       # Transaction distribution
system.tol2bus.trans_dist::ReadRespWithInvalidate           84                       # Transaction distribution
system.tol2bus.trans_dist::WritebackDirty     12123877                       # Transaction distribution
system.tol2bus.trans_dist::WritebackClean    246216597                       # Transaction distribution
system.tol2bus.trans_dist::CleanEvict       471637758                       # Transaction distribution
system.tol2bus.trans_dist::HardPFReq         49122060                       # Transaction distribution
system.tol2bus.trans_dist::HardPFResp             626                       # Transaction distribution
system.tol2bus.trans_dist::UpgradeReq          156518                       # Transaction distribution
system.tol2bus.trans_dist::SCUpgradeReq         10560                       # Transaction distribution
system.tol2bus.trans_dist::UpgradeResp         167078                       # Transaction distribution
system.tol2bus.trans_dist::SCUpgradeFailReq         1081                       # Transaction distribution
system.tol2bus.trans_dist::UpgradeFailResp         1081                       # Transaction distribution
system.tol2bus.trans_dist::ReadExReq          3240430                       # Transaction distribution
system.tol2bus.trans_dist::ReadExResp         3240430                       # Transaction distribution
system.tol2bus.trans_dist::ReadCleanReq        256394                       # Transaction distribution
system.tol2bus.trans_dist::ReadSharedReq    249807952                       # Transaction distribution
system.tol2bus.trans_dist::InvalidateReq            5                       # Transaction distribution
system.tol2bus.trans_dist::InvalidateResp            5                       # Transaction distribution
system.tol2bus.pkt_count_system.cpu0.icache.mem_side::system.l2.cpu_side       457147                       # Packet count per connected master and slave (bytes)
system.tol2bus.pkt_count_system.cpu0.dcache.mem_side::system.l2.cpu_side    189647713                       # Packet count per connected master and slave (bytes)
system.tol2bus.pkt_count_system.cpu1.icache.mem_side::system.l2.cpu_side       105837                       # Packet count per connected master and slave (bytes)
system.tol2bus.pkt_count_system.cpu1.dcache.mem_side::system.l2.cpu_side    189664142                       # Packet count per connected master and slave (bytes)
system.tol2bus.pkt_count_system.cpu2.icache.mem_side::system.l2.cpu_side       103263                       # Packet count per connected master and slave (bytes)
system.tol2bus.pkt_count_system.cpu2.dcache.mem_side::system.l2.cpu_side    189676152                       # Packet count per connected master and slave (bytes)
system.tol2bus.pkt_count_system.cpu3.icache.mem_side::system.l2.cpu_side       102930                       # Packet count per connected master and slave (bytes)
system.tol2bus.pkt_count_system.cpu3.dcache.mem_side::system.l2.cpu_side    189674469                       # Packet count per connected master and slave (bytes)
system.tol2bus.pkt_count::total             759431653                       # Packet count per connected master and slave (bytes)
system.tol2bus.pkt_size_system.cpu0.icache.mem_side::system.l2.cpu_side     19504832                       # Cumulative packet size per connected master and slave (bytes)
system.tol2bus.pkt_size_system.cpu0.dcache.mem_side::system.l2.cpu_side   8085621440                       # Cumulative packet size per connected master and slave (bytes)
system.tol2bus.pkt_size_system.cpu1.icache.mem_side::system.l2.cpu_side      4515712                       # Cumulative packet size per connected master and slave (bytes)
system.tol2bus.pkt_size_system.cpu1.dcache.mem_side::system.l2.cpu_side   8086387328                       # Cumulative packet size per connected master and slave (bytes)
system.tol2bus.pkt_size_system.cpu2.icache.mem_side::system.l2.cpu_side      4405888                       # Cumulative packet size per connected master and slave (bytes)
system.tol2bus.pkt_size_system.cpu2.dcache.mem_side::system.l2.cpu_side   8086968448                       # Cumulative packet size per connected master and slave (bytes)
system.tol2bus.pkt_size_system.cpu3.icache.mem_side::system.l2.cpu_side      4391680                       # Cumulative packet size per connected master and slave (bytes)
system.tol2bus.pkt_size_system.cpu3.dcache.mem_side::system.l2.cpu_side   8086768384                       # Cumulative packet size per connected master and slave (bytes)
system.tol2bus.pkt_size::total            32378563712                       # Cumulative packet size per connected master and slave (bytes)
system.tol2bus.snoops                       526615770                       # Total snoops (count)
system.tol2bus.snoopTraffic                 366881536                       # Total snoop traffic (bytes)
system.tol2bus.snoop_fanout::samples        781079691                       # Request fanout histogram
system.tol2bus.snoop_fanout::mean            0.359844                       # Request fanout histogram
system.tol2bus.snoop_fanout::stdev           0.551057                       # Request fanout histogram
system.tol2bus.snoop_fanout::underflows             0      0.00%      0.00% # Request fanout histogram
system.tol2bus.snoop_fanout::0              523525319     67.03%     67.03% # Request fanout histogram
system.tol2bus.snoop_fanout::1              238481706     30.53%     97.56% # Request fanout histogram
system.tol2bus.snoop_fanout::2               15309430      1.96%     99.52% # Request fanout histogram
system.tol2bus.snoop_fanout::3                3086511      0.40%     99.91% # Request fanout histogram
system.tol2bus.snoop_fanout::4                 676725      0.09%    100.00% # Request fanout histogram
system.tol2bus.snoop_fanout::5                      0      0.00%    100.00% # Request fanout histogram
system.tol2bus.snoop_fanout::6                      0      0.00%    100.00% # Request fanout histogram
system.tol2bus.snoop_fanout::7                      0      0.00%    100.00% # Request fanout histogram
system.tol2bus.snoop_fanout::8                      0      0.00%    100.00% # Request fanout histogram
system.tol2bus.snoop_fanout::overflows              0      0.00%    100.00% # Request fanout histogram
system.tol2bus.snoop_fanout::min_value              0                       # Request fanout histogram
system.tol2bus.snoop_fanout::max_value              4                       # Request fanout histogram
system.tol2bus.snoop_fanout::total          781079691                       # Request fanout histogram
system.tol2bus.reqLayer0.occupancy       510363075340                       # Layer occupancy (ticks)
system.tol2bus.reqLayer0.utilization             26.3                       # Layer utilization (%)
system.tol2bus.respLayer5.occupancy       95272315170                       # Layer occupancy (ticks)
system.tol2bus.respLayer5.utilization             4.9                       # Layer utilization (%)
system.tol2bus.respLayer4.occupancy          54179845                       # Layer occupancy (ticks)
system.tol2bus.respLayer4.utilization             0.0                       # Layer utilization (%)
system.tol2bus.respLayer7.occupancy       95272731916                       # Layer occupancy (ticks)
system.tol2bus.respLayer7.utilization             4.9                       # Layer utilization (%)
system.tol2bus.respLayer6.occupancy          54134199                       # Layer occupancy (ticks)
system.tol2bus.respLayer6.utilization             0.0                       # Layer utilization (%)
system.tol2bus.respLayer1.occupancy       95257844597                       # Layer occupancy (ticks)
system.tol2bus.respLayer1.utilization             4.9                       # Layer utilization (%)
system.tol2bus.respLayer0.occupancy         229138703                       # Layer occupancy (ticks)
system.tol2bus.respLayer0.utilization             0.0                       # Layer utilization (%)
system.tol2bus.respLayer3.occupancy       95267648714                       # Layer occupancy (ticks)
system.tol2bus.respLayer3.utilization             4.9                       # Layer utilization (%)
system.tol2bus.respLayer2.occupancy          55296078                       # Layer occupancy (ticks)
system.tol2bus.respLayer2.utilization             0.0                       # Layer utilization (%)
system.tol2bus.snoopLayer0.occupancy           939708                       # Layer occupancy (ticks)
system.tol2bus.snoopLayer0.utilization            0.0                       # Layer utilization (%)

---------- End Simulation Statistics   ----------
