
---------- Begin Simulation Statistics ----------
final_tick                               1288508742500                       # Number of ticks from beginning of simulation (restored from checkpoints and never reset)
host_inst_rate                                  59748                       # Simulator instruction rate (inst/s)
host_mem_usage                                 702232                       # Number of bytes of host memory used
host_op_rate                                    59923                       # Simulator op (including micro ops) rate (op/s)
host_seconds                                 24044.67                       # Real time elapsed on the host
host_tick_rate                               53588132                       # Simulator tick rate (ticks/s)
sim_freq                                 1000000000000                       # Frequency of simulated ticks
sim_insts                                  1436619381                       # Number of instructions simulated
sim_ops                                    1440823126                       # Number of ops (including micro ops) simulated
sim_seconds                                  1.288509                       # Number of seconds simulated
sim_ticks                                1288508742500                       # Number of ticks simulated
system.cpu0.branchPred.BTBCorrect                   0                       # Number of correct BTB predictions (this stat may not work properly.
system.cpu0.branchPred.BTBHitPct            85.460365                       # BTB Hit Percentage
system.cpu0.branchPred.BTBHits              188429915                       # Number of BTB hits
system.cpu0.branchPred.BTBLookups           220488077                       # Number of BTB lookups
system.cpu0.branchPred.RASInCorrect                 0                       # Number of incorrect RAS predictions.
system.cpu0.branchPred.condIncorrect         21796191                       # Number of conditional branches incorrect
system.cpu0.branchPred.condPredicted        282374920                       # Number of conditional branches predicted
system.cpu0.branchPred.indirectHits          27306046                       # Number of indirect target hits.
system.cpu0.branchPred.indirectLookups       28267395                       # Number of indirect predictor lookups.
system.cpu0.branchPred.indirectMisses          961349                       # Number of indirect misses.
system.cpu0.branchPred.lookups              367022374                       # Number of BP lookups
system.cpu0.branchPred.usedRAS                      0                       # Number of times the RAS was used to get a target.
system.cpu0.branchPredindirectMispredicted      2188519                       # Number of mispredicted indirect branches.
system.cpu0.commit.amos                       2100285                       # Number of atomic instructions committed
system.cpu0.commit.branchMispredicts         11901896                       # The number of times a branch was mispredicted
system.cpu0.commit.branches                 329547189                       # Number of branches committed
system.cpu0.commit.bw_lim_events             39865374                       # number cycles where commit BW limit reached
system.cpu0.commit.commitNonSpecStalls        6309741                       # The number of times commit has been forced to stall to communicate backwards
system.cpu0.commit.commitSquashedInsts      138153779                       # The number of squashed insts skipped by commit
system.cpu0.commit.committedInsts          1316562653                       # Number of instructions committed
system.cpu0.commit.committedOps            1318666222                       # Number of ops (including micro ops) committed
system.cpu0.commit.committed_per_cycle::samples   2313021453                       # Number of insts commited each cycle
system.cpu0.commit.committed_per_cycle::mean     0.570105                       # Number of insts commited each cycle
system.cpu0.commit.committed_per_cycle::stdev     1.364059                       # Number of insts commited each cycle
system.cpu0.commit.committed_per_cycle::underflows            0      0.00%      0.00% # Number of insts commited each cycle
system.cpu0.commit.committed_per_cycle::0   1698483966     73.43%     73.43% # Number of insts commited each cycle
system.cpu0.commit.committed_per_cycle::1    357837508     15.47%     88.90% # Number of insts commited each cycle
system.cpu0.commit.committed_per_cycle::2     84353312      3.65%     92.55% # Number of insts commited each cycle
system.cpu0.commit.committed_per_cycle::3     84727412      3.66%     96.21% # Number of insts commited each cycle
system.cpu0.commit.committed_per_cycle::4     31753524      1.37%     97.58% # Number of insts commited each cycle
system.cpu0.commit.committed_per_cycle::5      7130038      0.31%     97.89% # Number of insts commited each cycle
system.cpu0.commit.committed_per_cycle::6      5739657      0.25%     98.14% # Number of insts commited each cycle
system.cpu0.commit.committed_per_cycle::7      3130662      0.14%     98.28% # Number of insts commited each cycle
system.cpu0.commit.committed_per_cycle::8     39865374      1.72%    100.00% # Number of insts commited each cycle
system.cpu0.commit.committed_per_cycle::overflows            0      0.00%    100.00% # Number of insts commited each cycle
system.cpu0.commit.committed_per_cycle::min_value            0                       # Number of insts commited each cycle
system.cpu0.commit.committed_per_cycle::max_value            8                       # Number of insts commited each cycle
system.cpu0.commit.committed_per_cycle::total   2313021453                       # Number of insts commited each cycle
system.cpu0.commit.fp_insts                        50                       # Number of committed floating point instructions.
system.cpu0.commit.function_calls            25143449                       # Number of function calls committed.
system.cpu0.commit.int_insts               1273934348                       # Number of committed integer instructions.
system.cpu0.commit.loads                    405171321                       # Number of loads committed
system.cpu0.commit.membars                    4203729                       # Number of memory barriers committed
system.cpu0.commit.op_class_0::No_OpClass      4203735      0.32%      0.32% # Class of committed instruction
system.cpu0.commit.op_class_0::IntAlu       742072459     56.27%     56.59% # Class of committed instruction
system.cpu0.commit.op_class_0::IntMult       11833028      0.90%     57.49% # Class of committed instruction
system.cpu0.commit.op_class_0::IntDiv         2099835      0.16%     57.65% # Class of committed instruction
system.cpu0.commit.op_class_0::FloatAdd             0      0.00%     57.65% # Class of committed instruction
system.cpu0.commit.op_class_0::FloatCmp             4      0.00%     57.65% # Class of committed instruction
system.cpu0.commit.op_class_0::FloatCvt            12      0.00%     57.65% # Class of committed instruction
system.cpu0.commit.op_class_0::FloatMult            0      0.00%     57.65% # Class of committed instruction
system.cpu0.commit.op_class_0::FloatMultAcc            0      0.00%     57.65% # Class of committed instruction
system.cpu0.commit.op_class_0::FloatDiv             2      0.00%     57.65% # Class of committed instruction
system.cpu0.commit.op_class_0::FloatMisc            4      0.00%     57.65% # Class of committed instruction
system.cpu0.commit.op_class_0::FloatSqrt            0      0.00%     57.65% # Class of committed instruction
system.cpu0.commit.op_class_0::SimdAdd              0      0.00%     57.65% # Class of committed instruction
system.cpu0.commit.op_class_0::SimdAddAcc            0      0.00%     57.65% # Class of committed instruction
system.cpu0.commit.op_class_0::SimdAlu              0      0.00%     57.65% # Class of committed instruction
system.cpu0.commit.op_class_0::SimdCmp              0      0.00%     57.65% # Class of committed instruction
system.cpu0.commit.op_class_0::SimdCvt              0      0.00%     57.65% # Class of committed instruction
system.cpu0.commit.op_class_0::SimdMisc             0      0.00%     57.65% # Class of committed instruction
system.cpu0.commit.op_class_0::SimdMult             0      0.00%     57.65% # Class of committed instruction
system.cpu0.commit.op_class_0::SimdMultAcc            0      0.00%     57.65% # Class of committed instruction
system.cpu0.commit.op_class_0::SimdShift            0      0.00%     57.65% # Class of committed instruction
system.cpu0.commit.op_class_0::SimdShiftAcc            0      0.00%     57.65% # Class of committed instruction
system.cpu0.commit.op_class_0::SimdDiv              0      0.00%     57.65% # Class of committed instruction
system.cpu0.commit.op_class_0::SimdSqrt             0      0.00%     57.65% # Class of committed instruction
system.cpu0.commit.op_class_0::SimdFloatAdd            0      0.00%     57.65% # Class of committed instruction
system.cpu0.commit.op_class_0::SimdFloatAlu            0      0.00%     57.65% # Class of committed instruction
system.cpu0.commit.op_class_0::SimdFloatCmp            0      0.00%     57.65% # Class of committed instruction
system.cpu0.commit.op_class_0::SimdFloatCvt            0      0.00%     57.65% # Class of committed instruction
system.cpu0.commit.op_class_0::SimdFloatDiv            0      0.00%     57.65% # Class of committed instruction
system.cpu0.commit.op_class_0::SimdFloatMisc            0      0.00%     57.65% # Class of committed instruction
system.cpu0.commit.op_class_0::SimdFloatMult            0      0.00%     57.65% # Class of committed instruction
system.cpu0.commit.op_class_0::SimdFloatMultAcc            0      0.00%     57.65% # Class of committed instruction
system.cpu0.commit.op_class_0::SimdFloatSqrt            0      0.00%     57.65% # Class of committed instruction
system.cpu0.commit.op_class_0::SimdReduceAdd            0      0.00%     57.65% # Class of committed instruction
system.cpu0.commit.op_class_0::SimdReduceAlu            0      0.00%     57.65% # Class of committed instruction
system.cpu0.commit.op_class_0::SimdReduceCmp            0      0.00%     57.65% # Class of committed instruction
system.cpu0.commit.op_class_0::SimdFloatReduceAdd            0      0.00%     57.65% # Class of committed instruction
system.cpu0.commit.op_class_0::SimdFloatReduceCmp            0      0.00%     57.65% # Class of committed instruction
system.cpu0.commit.op_class_0::SimdAes              0      0.00%     57.65% # Class of committed instruction
system.cpu0.commit.op_class_0::SimdAesMix            0      0.00%     57.65% # Class of committed instruction
system.cpu0.commit.op_class_0::SimdSha1Hash            0      0.00%     57.65% # Class of committed instruction
system.cpu0.commit.op_class_0::SimdSha1Hash2            0      0.00%     57.65% # Class of committed instruction
system.cpu0.commit.op_class_0::SimdSha256Hash            0      0.00%     57.65% # Class of committed instruction
system.cpu0.commit.op_class_0::SimdSha256Hash2            0      0.00%     57.65% # Class of committed instruction
system.cpu0.commit.op_class_0::SimdShaSigma2            0      0.00%     57.65% # Class of committed instruction
system.cpu0.commit.op_class_0::SimdShaSigma3            0      0.00%     57.65% # Class of committed instruction
system.cpu0.commit.op_class_0::SimdPredAlu            0      0.00%     57.65% # Class of committed instruction
system.cpu0.commit.op_class_0::MemRead      407271598     30.89%     88.53% # Class of committed instruction
system.cpu0.commit.op_class_0::MemWrite     151185517     11.47%    100.00% # Class of committed instruction
system.cpu0.commit.op_class_0::FloatMemRead            8      0.00%    100.00% # Class of committed instruction
system.cpu0.commit.op_class_0::FloatMemWrite           20      0.00%    100.00% # Class of committed instruction
system.cpu0.commit.op_class_0::IprAccess            0      0.00%    100.00% # Class of committed instruction
system.cpu0.commit.op_class_0::InstPrefetch            0      0.00%    100.00% # Class of committed instruction
system.cpu0.commit.op_class_0::total       1318666222                       # Class of committed instruction
system.cpu0.commit.refs                     558457143                       # Number of memory references committed
system.cpu0.commit.swp_count                        0                       # Number of s/w prefetches committed
system.cpu0.commit.vec_insts                        0                       # Number of committed Vector instructions.
system.cpu0.committedInsts                 1316562653                       # Number of Instructions Simulated
system.cpu0.committedOps                   1318666222                       # Number of Ops (including micro ops) Simulated
system.cpu0.cpi                              1.952282                       # CPI: Cycles Per Instruction
system.cpu0.cpi_total                        1.952282                       # CPI: Total CPI of All Threads
system.cpu0.decode.BlockedCycles            450891930                       # Number of cycles decode is blocked
system.cpu0.decode.BranchMispred              9945370                       # Number of times decode detected a branch misprediction
system.cpu0.decode.BranchResolved           182295436                       # Number of times decode resolved a branch
system.cpu0.decode.DecodedInsts            1487955027                       # Number of instructions handled by decode
system.cpu0.decode.IdleCycles               849758817                       # Number of cycles decode is idle
system.cpu0.decode.RunCycles               1018212473                       # Number of cycles decode is running
system.cpu0.decode.SquashCycles              11912014                       # Number of cycles decode is squashing
system.cpu0.decode.SquashedInsts             18653008                       # Number of squashed instructions handled by decode
system.cpu0.decode.UnblockCycles              7861453                       # Number of cycles decode is unblocking
system.cpu0.dtb.accesses                            0                       # DTB accesses
system.cpu0.dtb.hits                                0                       # DTB hits
system.cpu0.dtb.misses                              0                       # DTB misses
system.cpu0.dtb.read_accesses                       0                       # DTB read accesses
system.cpu0.dtb.read_hits                           0                       # DTB read hits
system.cpu0.dtb.read_misses                         0                       # DTB read misses
system.cpu0.dtb.write_accesses                      0                       # DTB write accesses
system.cpu0.dtb.write_hits                          0                       # DTB write hits
system.cpu0.dtb.write_misses                        0                       # DTB write misses
system.cpu0.fetch.Branches                  367022374                       # Number of branches that fetch encountered
system.cpu0.fetch.CacheLines                257958902                       # Number of cache lines fetched
system.cpu0.fetch.Cycles                   1489905084                       # Number of cycles fetch has run and was not squashing or blocked
system.cpu0.fetch.IcacheSquashes              7603807                       # Number of outstanding Icache misses that were squashed
system.cpu0.fetch.IcacheWaitRetryStallCycles          174                       # Number of stall cycles due to full MSHR
system.cpu0.fetch.Insts                    1532721852                       # Number of instructions fetch has processed
system.cpu0.fetch.MiscStallCycles                  28                       # Number of cycles fetch has spent waiting on interrupts, or bad addresses, or out of MSHRs
system.cpu0.fetch.PendingTrapStallCycles           32                       # Number of stall cycles due to pending traps
system.cpu0.fetch.SquashCycles               43612626                       # Number of cycles fetch has spent squashing
system.cpu0.fetch.branchRate                 0.142794                       # Number of branch fetches per cycle
system.cpu0.fetch.icacheStallCycles         826925056                       # Number of cycles fetch is stalled on an Icache miss
system.cpu0.fetch.predictedBranches         215735961                       # Number of branches that fetch has predicted taken
system.cpu0.fetch.rate                       0.596320                       # Number of inst fetches per cycle
system.cpu0.fetch.rateDist::samples        2338636687                       # Number of instructions fetched each cycle (Total)
system.cpu0.fetch.rateDist::mean             0.656291                       # Number of instructions fetched each cycle (Total)
system.cpu0.fetch.rateDist::stdev            0.907731                       # Number of instructions fetched each cycle (Total)
system.cpu0.fetch.rateDist::underflows              0      0.00%      0.00% # Number of instructions fetched each cycle (Total)
system.cpu0.fetch.rateDist::0              1264312202     54.06%     54.06% # Number of instructions fetched each cycle (Total)
system.cpu0.fetch.rateDist::1               790265422     33.79%     87.85% # Number of instructions fetched each cycle (Total)
system.cpu0.fetch.rateDist::2               145050354      6.20%     94.06% # Number of instructions fetched each cycle (Total)
system.cpu0.fetch.rateDist::3               113764400      4.86%     98.92% # Number of instructions fetched each cycle (Total)
system.cpu0.fetch.rateDist::4                19896019      0.85%     99.77% # Number of instructions fetched each cycle (Total)
system.cpu0.fetch.rateDist::5                 2718522      0.12%     99.89% # Number of instructions fetched each cycle (Total)
system.cpu0.fetch.rateDist::6                  523966      0.02%     99.91% # Number of instructions fetched each cycle (Total)
system.cpu0.fetch.rateDist::7                     445      0.00%     99.91% # Number of instructions fetched each cycle (Total)
system.cpu0.fetch.rateDist::8                 2105357      0.09%    100.00% # Number of instructions fetched each cycle (Total)
system.cpu0.fetch.rateDist::overflows               0      0.00%    100.00% # Number of instructions fetched each cycle (Total)
system.cpu0.fetch.rateDist::min_value               0                       # Number of instructions fetched each cycle (Total)
system.cpu0.fetch.rateDist::max_value               8                       # Number of instructions fetched each cycle (Total)
system.cpu0.fetch.rateDist::total          2338636687                       # Number of instructions fetched each cycle (Total)
system.cpu0.fp_regfile_reads                       44                       # number of floating regfile reads
system.cpu0.fp_regfile_writes                      23                       # number of floating regfile writes
system.cpu0.idleCycles                      231664706                       # Total number of cycles that the CPU has spent unscheduled due to idling
system.cpu0.iew.branchMispredicts            12024561                       # Number of branch mispredicts detected at execute
system.cpu0.iew.exec_branches               345290551                       # Number of branches executed
system.cpu0.iew.exec_nop                            0                       # number of nop insts executed
system.cpu0.iew.exec_rate                    0.561265                       # Inst execution rate
system.cpu0.iew.exec_refs                   639968542                       # number of memory reference insts executed
system.cpu0.iew.exec_stores                 170112312                       # Number of stores executed
system.cpu0.iew.exec_swp                            0                       # number of swp insts executed
system.cpu0.iew.iewBlockCycles              370608050                       # Number of cycles IEW is blocking
system.cpu0.iew.iewDispLoadInsts            467519102                       # Number of dispatched load instructions
system.cpu0.iew.iewDispNonSpecInsts           2106235                       # Number of dispatched non-speculative instructions
system.cpu0.iew.iewDispSquashedInsts          8761821                       # Number of squashed instructions skipped by dispatch
system.cpu0.iew.iewDispStoreInsts           171244190                       # Number of dispatched store instructions
system.cpu0.iew.iewDispatchedInsts         1456748364                       # Number of instructions dispatched to IQ
system.cpu0.iew.iewExecLoadInsts            469856230                       # Number of load instructions executed
system.cpu0.iew.iewExecSquashedInsts         10849000                       # Number of squashed instructions skipped in execute
system.cpu0.iew.iewExecutedInsts           1442621278                       # Number of executed instructions
system.cpu0.iew.iewIQFullEvents               2093119                       # Number of times the IQ has become full, causing a stall
system.cpu0.iew.iewIdleCycles                       0                       # Number of cycles IEW is idle
system.cpu0.iew.iewLSQFullEvents              8381955                       # Number of times the LSQ has become full, causing a stall
system.cpu0.iew.iewSquashCycles              11912014                       # Number of cycles IEW is squashing
system.cpu0.iew.iewUnblockCycles             12765312                       # Number of cycles IEW is unblocking
system.cpu0.iew.lsq.thread0.blockedLoads            0                       # Number of blocked loads due to partial load-store forwarding
system.cpu0.iew.lsq.thread0.cacheBlocked       217407                       # Number of times an access to memory failed due to the cache being blocked
system.cpu0.iew.lsq.thread0.forwLoads        27863578                       # Number of loads that had data forwarded from stores
system.cpu0.iew.lsq.thread0.ignoredResponses        60609                       # Number of memory responses ignored because the instruction is squashed
system.cpu0.iew.lsq.thread0.invAddrLoads            0                       # Number of loads ignored due to an invalid address
system.cpu0.iew.lsq.thread0.invAddrSwpfs            0                       # Number of software prefetches ignored due to an invalid address
system.cpu0.iew.lsq.thread0.memOrderViolation         8874                       # Number of memory ordering violations
system.cpu0.iew.lsq.thread0.rescheduledLoads      8429813                       # Number of loads that were rescheduled
system.cpu0.iew.lsq.thread0.squashedLoads     62347781                       # Number of loads squashed
system.cpu0.iew.lsq.thread0.squashedStores     17958368                       # Number of stores squashed
system.cpu0.iew.memOrderViolationEvents          8874                       # Number of memory order violations
system.cpu0.iew.predictedNotTakenIncorrect       748181                       # Number of branches that were predicted not taken incorrectly
system.cpu0.iew.predictedTakenIncorrect      11276380                       # Number of branches that were predicted taken incorrectly
system.cpu0.iew.wb_consumers                659080162                       # num instructions consuming a value
system.cpu0.iew.wb_count                   1426916630                       # cumulative count of insts written-back
system.cpu0.iew.wb_fanout                    0.839710                       # average fanout of values written-back
system.cpu0.iew.wb_producers                553436306                       # num instructions producing a value
system.cpu0.iew.wb_rate                      0.555155                       # insts written-back per cycle
system.cpu0.iew.wb_sent                    1427007702                       # cumulative count of insts sent to commit
system.cpu0.int_regfile_reads              1765083807                       # number of integer regfile reads
system.cpu0.int_regfile_writes              923166582                       # number of integer regfile writes
system.cpu0.ipc                              0.512221                       # IPC: Instructions Per Cycle
system.cpu0.ipc_total                        0.512221                       # IPC: Total IPC of All Threads
system.cpu0.iq.FU_type_0::No_OpClass          4205602      0.29%      0.29% # Type of FU issued
system.cpu0.iq.FU_type_0::IntAlu            793619412     54.60%     54.89% # Type of FU issued
system.cpu0.iq.FU_type_0::IntMult            11848525      0.82%     55.71% # Type of FU issued
system.cpu0.iq.FU_type_0::IntDiv              2100469      0.14%     55.85% # Type of FU issued
system.cpu0.iq.FU_type_0::FloatAdd                  0      0.00%     55.85% # Type of FU issued
system.cpu0.iq.FU_type_0::FloatCmp                  4      0.00%     55.85% # Type of FU issued
system.cpu0.iq.FU_type_0::FloatCvt                 12      0.00%     55.85% # Type of FU issued
system.cpu0.iq.FU_type_0::FloatMult                 0      0.00%     55.85% # Type of FU issued
system.cpu0.iq.FU_type_0::FloatMultAcc              0      0.00%     55.85% # Type of FU issued
system.cpu0.iq.FU_type_0::FloatDiv                  2      0.00%     55.85% # Type of FU issued
system.cpu0.iq.FU_type_0::FloatMisc                 4      0.00%     55.85% # Type of FU issued
system.cpu0.iq.FU_type_0::FloatSqrt                 0      0.00%     55.85% # Type of FU issued
system.cpu0.iq.FU_type_0::SimdAdd                   0      0.00%     55.85% # Type of FU issued
system.cpu0.iq.FU_type_0::SimdAddAcc                0      0.00%     55.85% # Type of FU issued
system.cpu0.iq.FU_type_0::SimdAlu                   0      0.00%     55.85% # Type of FU issued
system.cpu0.iq.FU_type_0::SimdCmp                   0      0.00%     55.85% # Type of FU issued
system.cpu0.iq.FU_type_0::SimdCvt                   0      0.00%     55.85% # Type of FU issued
system.cpu0.iq.FU_type_0::SimdMisc                  0      0.00%     55.85% # Type of FU issued
system.cpu0.iq.FU_type_0::SimdMult                  0      0.00%     55.85% # Type of FU issued
system.cpu0.iq.FU_type_0::SimdMultAcc               0      0.00%     55.85% # Type of FU issued
system.cpu0.iq.FU_type_0::SimdShift                 0      0.00%     55.85% # Type of FU issued
system.cpu0.iq.FU_type_0::SimdShiftAcc              0      0.00%     55.85% # Type of FU issued
system.cpu0.iq.FU_type_0::SimdDiv                   0      0.00%     55.85% # Type of FU issued
system.cpu0.iq.FU_type_0::SimdSqrt                  0      0.00%     55.85% # Type of FU issued
system.cpu0.iq.FU_type_0::SimdFloatAdd              0      0.00%     55.85% # Type of FU issued
system.cpu0.iq.FU_type_0::SimdFloatAlu              0      0.00%     55.85% # Type of FU issued
system.cpu0.iq.FU_type_0::SimdFloatCmp              0      0.00%     55.85% # Type of FU issued
system.cpu0.iq.FU_type_0::SimdFloatCvt              0      0.00%     55.85% # Type of FU issued
system.cpu0.iq.FU_type_0::SimdFloatDiv              0      0.00%     55.85% # Type of FU issued
system.cpu0.iq.FU_type_0::SimdFloatMisc             0      0.00%     55.85% # Type of FU issued
system.cpu0.iq.FU_type_0::SimdFloatMult             0      0.00%     55.85% # Type of FU issued
system.cpu0.iq.FU_type_0::SimdFloatMultAcc            0      0.00%     55.85% # Type of FU issued
system.cpu0.iq.FU_type_0::SimdFloatSqrt             0      0.00%     55.85% # Type of FU issued
system.cpu0.iq.FU_type_0::SimdReduceAdd             0      0.00%     55.85% # Type of FU issued
system.cpu0.iq.FU_type_0::SimdReduceAlu             0      0.00%     55.85% # Type of FU issued
system.cpu0.iq.FU_type_0::SimdReduceCmp             0      0.00%     55.85% # Type of FU issued
system.cpu0.iq.FU_type_0::SimdFloatReduceAdd            0      0.00%     55.85% # Type of FU issued
system.cpu0.iq.FU_type_0::SimdFloatReduceCmp            0      0.00%     55.85% # Type of FU issued
system.cpu0.iq.FU_type_0::SimdAes                   0      0.00%     55.85% # Type of FU issued
system.cpu0.iq.FU_type_0::SimdAesMix                0      0.00%     55.85% # Type of FU issued
system.cpu0.iq.FU_type_0::SimdSha1Hash              0      0.00%     55.85% # Type of FU issued
system.cpu0.iq.FU_type_0::SimdSha1Hash2             0      0.00%     55.85% # Type of FU issued
system.cpu0.iq.FU_type_0::SimdSha256Hash            0      0.00%     55.85% # Type of FU issued
system.cpu0.iq.FU_type_0::SimdSha256Hash2            0      0.00%     55.85% # Type of FU issued
system.cpu0.iq.FU_type_0::SimdShaSigma2             0      0.00%     55.85% # Type of FU issued
system.cpu0.iq.FU_type_0::SimdShaSigma3             0      0.00%     55.85% # Type of FU issued
system.cpu0.iq.FU_type_0::SimdPredAlu               0      0.00%     55.85% # Type of FU issued
system.cpu0.iq.FU_type_0::MemRead           473522309     32.58%     88.43% # Type of FU issued
system.cpu0.iq.FU_type_0::MemWrite          168173908     11.57%    100.00% # Type of FU issued
system.cpu0.iq.FU_type_0::FloatMemRead             11      0.00%    100.00% # Type of FU issued
system.cpu0.iq.FU_type_0::FloatMemWrite            20      0.00%    100.00% # Type of FU issued
system.cpu0.iq.FU_type_0::IprAccess                 0      0.00%    100.00% # Type of FU issued
system.cpu0.iq.FU_type_0::InstPrefetch              0      0.00%    100.00% # Type of FU issued
system.cpu0.iq.FU_type_0::total            1453470278                       # Type of FU issued
system.cpu0.iq.fp_alu_accesses                     57                       # Number of floating point alu accesses
system.cpu0.iq.fp_inst_queue_reads                110                       # Number of floating instruction queue reads
system.cpu0.iq.fp_inst_queue_wakeup_accesses           51                       # Number of floating instruction queue wakeup accesses
system.cpu0.iq.fp_inst_queue_writes                88                       # Number of floating instruction queue writes
system.cpu0.iq.fu_busy_cnt                    2902944                       # FU busy when requested
system.cpu0.iq.fu_busy_rate                  0.001997                       # FU busy rate (busy events/executed inst)
system.cpu0.iq.fu_full::No_OpClass                  0      0.00%      0.00% # attempts to use FU when none available
system.cpu0.iq.fu_full::IntAlu                 458708     15.80%     15.80% # attempts to use FU when none available
system.cpu0.iq.fu_full::IntMult                     1      0.00%     15.80% # attempts to use FU when none available
system.cpu0.iq.fu_full::IntDiv                      0      0.00%     15.80% # attempts to use FU when none available
system.cpu0.iq.fu_full::FloatAdd                    0      0.00%     15.80% # attempts to use FU when none available
system.cpu0.iq.fu_full::FloatCmp                    0      0.00%     15.80% # attempts to use FU when none available
system.cpu0.iq.fu_full::FloatCvt                    0      0.00%     15.80% # attempts to use FU when none available
system.cpu0.iq.fu_full::FloatMult                   0      0.00%     15.80% # attempts to use FU when none available
system.cpu0.iq.fu_full::FloatMultAcc                0      0.00%     15.80% # attempts to use FU when none available
system.cpu0.iq.fu_full::FloatDiv                    0      0.00%     15.80% # attempts to use FU when none available
system.cpu0.iq.fu_full::FloatMisc                   0      0.00%     15.80% # attempts to use FU when none available
system.cpu0.iq.fu_full::FloatSqrt                   0      0.00%     15.80% # attempts to use FU when none available
system.cpu0.iq.fu_full::SimdAdd                     0      0.00%     15.80% # attempts to use FU when none available
system.cpu0.iq.fu_full::SimdAddAcc                  0      0.00%     15.80% # attempts to use FU when none available
system.cpu0.iq.fu_full::SimdAlu                     0      0.00%     15.80% # attempts to use FU when none available
system.cpu0.iq.fu_full::SimdCmp                     0      0.00%     15.80% # attempts to use FU when none available
system.cpu0.iq.fu_full::SimdCvt                     0      0.00%     15.80% # attempts to use FU when none available
system.cpu0.iq.fu_full::SimdMisc                    0      0.00%     15.80% # attempts to use FU when none available
system.cpu0.iq.fu_full::SimdMult                    0      0.00%     15.80% # attempts to use FU when none available
system.cpu0.iq.fu_full::SimdMultAcc                 0      0.00%     15.80% # attempts to use FU when none available
system.cpu0.iq.fu_full::SimdShift                   0      0.00%     15.80% # attempts to use FU when none available
system.cpu0.iq.fu_full::SimdShiftAcc                0      0.00%     15.80% # attempts to use FU when none available
system.cpu0.iq.fu_full::SimdDiv                     0      0.00%     15.80% # attempts to use FU when none available
system.cpu0.iq.fu_full::SimdSqrt                    0      0.00%     15.80% # attempts to use FU when none available
system.cpu0.iq.fu_full::SimdFloatAdd                0      0.00%     15.80% # attempts to use FU when none available
system.cpu0.iq.fu_full::SimdFloatAlu                0      0.00%     15.80% # attempts to use FU when none available
system.cpu0.iq.fu_full::SimdFloatCmp                0      0.00%     15.80% # attempts to use FU when none available
system.cpu0.iq.fu_full::SimdFloatCvt                0      0.00%     15.80% # attempts to use FU when none available
system.cpu0.iq.fu_full::SimdFloatDiv                0      0.00%     15.80% # attempts to use FU when none available
system.cpu0.iq.fu_full::SimdFloatMisc               0      0.00%     15.80% # attempts to use FU when none available
system.cpu0.iq.fu_full::SimdFloatMult               0      0.00%     15.80% # attempts to use FU when none available
system.cpu0.iq.fu_full::SimdFloatMultAcc            0      0.00%     15.80% # attempts to use FU when none available
system.cpu0.iq.fu_full::SimdFloatSqrt               0      0.00%     15.80% # attempts to use FU when none available
system.cpu0.iq.fu_full::SimdReduceAdd               0      0.00%     15.80% # attempts to use FU when none available
system.cpu0.iq.fu_full::SimdReduceAlu               0      0.00%     15.80% # attempts to use FU when none available
system.cpu0.iq.fu_full::SimdReduceCmp               0      0.00%     15.80% # attempts to use FU when none available
system.cpu0.iq.fu_full::SimdFloatReduceAdd            0      0.00%     15.80% # attempts to use FU when none available
system.cpu0.iq.fu_full::SimdFloatReduceCmp            0      0.00%     15.80% # attempts to use FU when none available
system.cpu0.iq.fu_full::SimdAes                     0      0.00%     15.80% # attempts to use FU when none available
system.cpu0.iq.fu_full::SimdAesMix                  0      0.00%     15.80% # attempts to use FU when none available
system.cpu0.iq.fu_full::SimdSha1Hash                0      0.00%     15.80% # attempts to use FU when none available
system.cpu0.iq.fu_full::SimdSha1Hash2               0      0.00%     15.80% # attempts to use FU when none available
system.cpu0.iq.fu_full::SimdSha256Hash              0      0.00%     15.80% # attempts to use FU when none available
system.cpu0.iq.fu_full::SimdSha256Hash2             0      0.00%     15.80% # attempts to use FU when none available
system.cpu0.iq.fu_full::SimdShaSigma2               0      0.00%     15.80% # attempts to use FU when none available
system.cpu0.iq.fu_full::SimdShaSigma3               0      0.00%     15.80% # attempts to use FU when none available
system.cpu0.iq.fu_full::SimdPredAlu                 0      0.00%     15.80% # attempts to use FU when none available
system.cpu0.iq.fu_full::MemRead               1978906     68.17%     83.97% # attempts to use FU when none available
system.cpu0.iq.fu_full::MemWrite               465325     16.03%    100.00% # attempts to use FU when none available
system.cpu0.iq.fu_full::FloatMemRead                0      0.00%    100.00% # attempts to use FU when none available
system.cpu0.iq.fu_full::FloatMemWrite               4      0.00%    100.00% # attempts to use FU when none available
system.cpu0.iq.fu_full::IprAccess                   0      0.00%    100.00% # attempts to use FU when none available
system.cpu0.iq.fu_full::InstPrefetch                0      0.00%    100.00% # attempts to use FU when none available
system.cpu0.iq.int_alu_accesses            1452167563                       # Number of integer alu accesses
system.cpu0.iq.int_inst_queue_reads        5248689232                       # Number of integer instruction queue reads
system.cpu0.iq.int_inst_queue_wakeup_accesses   1426916579                       # Number of integer instruction queue wakeup accesses
system.cpu0.iq.int_inst_queue_writes       1594838871                       # Number of integer instruction queue writes
system.cpu0.iq.iqInstsAdded                1450438199                       # Number of instructions added to the IQ (excludes non-spec)
system.cpu0.iq.iqInstsIssued               1453470278                       # Number of instructions issued
system.cpu0.iq.iqNonSpecInstsAdded            6310165                       # Number of non-speculative instructions added to the IQ
system.cpu0.iq.iqSquashedInstsExamined      138082139                       # Number of squashed instructions iterated over during squash; mainly for profiling
system.cpu0.iq.iqSquashedInstsIssued           209155                       # Number of squashed instructions issued
system.cpu0.iq.iqSquashedNonSpecRemoved           424                       # Number of squashed non-spec instructions that were removed
system.cpu0.iq.iqSquashedOperandsExamined     25847947                       # Number of squashed operands that are examined and possibly removed from graph
system.cpu0.iq.issued_per_cycle::samples   2338636687                       # Number of insts issued each cycle
system.cpu0.iq.issued_per_cycle::mean        0.621503                       # Number of insts issued each cycle
system.cpu0.iq.issued_per_cycle::stdev       0.862316                       # Number of insts issued each cycle
system.cpu0.iq.issued_per_cycle::underflows            0      0.00%      0.00% # Number of insts issued each cycle
system.cpu0.iq.issued_per_cycle::0         1325410426     56.67%     56.67% # Number of insts issued each cycle
system.cpu0.iq.issued_per_cycle::1          692384473     29.61%     86.28% # Number of insts issued each cycle
system.cpu0.iq.issued_per_cycle::2          226332006      9.68%     95.96% # Number of insts issued each cycle
system.cpu0.iq.issued_per_cycle::3           75603323      3.23%     99.19% # Number of insts issued each cycle
system.cpu0.iq.issued_per_cycle::4           15742365      0.67%     99.86% # Number of insts issued each cycle
system.cpu0.iq.issued_per_cycle::5            1185938      0.05%     99.92% # Number of insts issued each cycle
system.cpu0.iq.issued_per_cycle::6            1369922      0.06%     99.97% # Number of insts issued each cycle
system.cpu0.iq.issued_per_cycle::7             372730      0.02%     99.99% # Number of insts issued each cycle
system.cpu0.iq.issued_per_cycle::8             235504      0.01%    100.00% # Number of insts issued each cycle
system.cpu0.iq.issued_per_cycle::overflows            0      0.00%    100.00% # Number of insts issued each cycle
system.cpu0.iq.issued_per_cycle::min_value            0                       # Number of insts issued each cycle
system.cpu0.iq.issued_per_cycle::max_value            8                       # Number of insts issued each cycle
system.cpu0.iq.issued_per_cycle::total     2338636687                       # Number of insts issued each cycle
system.cpu0.iq.rate                          0.565486                       # Inst issue rate
system.cpu0.iq.vec_alu_accesses                     0                       # Number of vector alu accesses
system.cpu0.iq.vec_inst_queue_reads                 0                       # Number of vector instruction queue reads
system.cpu0.iq.vec_inst_queue_wakeup_accesses            0                       # Number of vector instruction queue wakeup accesses
system.cpu0.iq.vec_inst_queue_writes                0                       # Number of vector instruction queue writes
system.cpu0.itb.accesses                            0                       # DTB accesses
system.cpu0.itb.hits                                0                       # DTB hits
system.cpu0.itb.misses                              0                       # DTB misses
system.cpu0.itb.read_accesses                       0                       # DTB read accesses
system.cpu0.itb.read_hits                           0                       # DTB read hits
system.cpu0.itb.read_misses                         0                       # DTB read misses
system.cpu0.itb.write_accesses                      0                       # DTB write accesses
system.cpu0.itb.write_hits                          0                       # DTB write hits
system.cpu0.itb.write_misses                        0                       # DTB write misses
system.cpu0.memDep0.conflictingLoads         18746529                       # Number of conflicting loads.
system.cpu0.memDep0.conflictingStores         3327328                       # Number of conflicting stores.
system.cpu0.memDep0.insertedLoads           467519102                       # Number of loads inserted to the mem dependence unit.
system.cpu0.memDep0.insertedStores          171244190                       # Number of stores inserted to the mem dependence unit.
system.cpu0.misc_regfile_reads                   1890                       # number of misc regfile reads
system.cpu0.misc_regfile_writes                    22                       # number of misc regfile writes
system.cpu0.numCycles                      2570301393                       # number of cpu cycles simulated
system.cpu0.numWorkItemsCompleted                   0                       # number of work items this cpu completed
system.cpu0.numWorkItemsStarted                     0                       # number of work items this cpu started
system.cpu0.quiesceCycles                     6716093                       # Total number of cycles that CPU has spent quiesced or waiting for an interrupt
system.cpu0.rename.BlockCycles              399699358                       # Number of cycles rename is blocking
system.cpu0.rename.CommittedMaps            845206800                       # Number of HB maps that are committed
system.cpu0.rename.IQFullEvents              14310511                       # Number of times rename has blocked due to IQ full
system.cpu0.rename.IdleCycles               862213215                       # Number of cycles rename is idle
system.cpu0.rename.LQFullEvents              12855194                       # Number of times rename has blocked due to LQ full
system.cpu0.rename.ROBFullEvents                27569                       # Number of times rename has blocked due to ROB full
system.cpu0.rename.RenameLookups           1808330319                       # Number of register rename lookups that rename has made
system.cpu0.rename.RenamedInsts            1479320223                       # Number of instructions processed by rename
system.cpu0.rename.RenamedOperands          967733931                       # Number of destination operands rename has renamed
system.cpu0.rename.RunCycles               1012242435                       # Number of cycles rename is running
system.cpu0.rename.SQFullEvents              24590457                       # Number of times rename has blocked due to SQ full
system.cpu0.rename.SquashCycles              11912014                       # Number of cycles rename is squashing
system.cpu0.rename.UnblockCycles             52407173                       # Number of cycles rename is unblocking
system.cpu0.rename.UndoneMaps               122527127                       # Number of HB maps that are undone due to squashing
system.cpu0.rename.fp_rename_lookups               44                       # Number of floating rename lookups
system.cpu0.rename.int_rename_lookups      1808330275                       # Number of integer rename lookups
system.cpu0.rename.serializeStallCycles        162492                       # count of cycles rename stalled for serializing inst
system.cpu0.rename.serializingInsts              5829                       # count of serializing insts renamed
system.cpu0.rename.skidInsts                 31579341                       # count of insts added to the skid buffer
system.cpu0.rename.tempSerializingInsts          5825                       # count of temporary serializing insts renamed
system.cpu0.rob.rob_reads                  3729951978                       # The number of ROB reads
system.cpu0.rob.rob_writes                 2939282499                       # The number of ROB writes
system.cpu0.timesIdled                       25510139                       # Number of times that the entire CPU went into an idle state and unscheduled itself
system.cpu0.workload.numSyscalls                 1857                       # Number of system calls
system.cpu1.branchPred.BTBCorrect                   0                       # Number of correct BTB predictions (this stat may not work properly.
system.cpu1.branchPred.BTBHitPct            90.780452                       # BTB Hit Percentage
system.cpu1.branchPred.BTBHits               21576145                       # Number of BTB hits
system.cpu1.branchPred.BTBLookups            23767391                       # Number of BTB lookups
system.cpu1.branchPred.RASInCorrect                 0                       # Number of incorrect RAS predictions.
system.cpu1.branchPred.condIncorrect          3028909                       # Number of conditional branches incorrect
system.cpu1.branchPred.condPredicted         32855614                       # Number of conditional branches predicted
system.cpu1.branchPred.indirectHits           1072522                       # Number of indirect target hits.
system.cpu1.branchPred.indirectLookups        1089062                       # Number of indirect predictor lookups.
system.cpu1.branchPred.indirectMisses           16540                       # Number of indirect misses.
system.cpu1.branchPred.lookups               37523276                       # Number of BP lookups
system.cpu1.branchPred.usedRAS                      0                       # Number of times the RAS was used to get a target.
system.cpu1.branchPredindirectMispredicted        47643                       # Number of mispredicted indirect branches.
system.cpu1.commit.amos                       2100002                       # Number of atomic instructions committed
system.cpu1.commit.branchMispredicts          2145019                       # The number of times a branch was mispredicted
system.cpu1.commit.branches                  28117503                       # Number of branches committed
system.cpu1.commit.bw_lim_events              3596836                       # number cycles where commit BW limit reached
system.cpu1.commit.commitNonSpecStalls        6300666                       # The number of times commit has been forced to stall to communicate backwards
system.cpu1.commit.commitSquashedInsts       21414552                       # The number of squashed insts skipped by commit
system.cpu1.commit.committedInsts           120056728                       # Number of instructions committed
system.cpu1.commit.committedOps             122156904                       # Number of ops (including micro ops) committed
system.cpu1.commit.committed_per_cycle::samples    469047052                       # Number of insts commited each cycle
system.cpu1.commit.committed_per_cycle::mean     0.260436                       # Number of insts commited each cycle
system.cpu1.commit.committed_per_cycle::stdev     1.009931                       # Number of insts commited each cycle
system.cpu1.commit.committed_per_cycle::underflows            0      0.00%      0.00% # Number of insts commited each cycle
system.cpu1.commit.committed_per_cycle::0    418236727     89.17%     89.17% # Number of insts commited each cycle
system.cpu1.commit.committed_per_cycle::1     25534627      5.44%     94.61% # Number of insts commited each cycle
system.cpu1.commit.committed_per_cycle::2      9289857      1.98%     96.59% # Number of insts commited each cycle
system.cpu1.commit.committed_per_cycle::3      7064560      1.51%     98.10% # Number of insts commited each cycle
system.cpu1.commit.committed_per_cycle::4      1756320      0.37%     98.47% # Number of insts commited each cycle
system.cpu1.commit.committed_per_cycle::5       937502      0.20%     98.67% # Number of insts commited each cycle
system.cpu1.commit.committed_per_cycle::6      2052956      0.44%     99.11% # Number of insts commited each cycle
system.cpu1.commit.committed_per_cycle::7       577667      0.12%     99.23% # Number of insts commited each cycle
system.cpu1.commit.committed_per_cycle::8      3596836      0.77%    100.00% # Number of insts commited each cycle
system.cpu1.commit.committed_per_cycle::overflows            0      0.00%    100.00% # Number of insts commited each cycle
system.cpu1.commit.committed_per_cycle::min_value            0                       # Number of insts commited each cycle
system.cpu1.commit.committed_per_cycle::max_value            8                       # Number of insts commited each cycle
system.cpu1.commit.committed_per_cycle::total    469047052                       # Number of insts commited each cycle
system.cpu1.commit.fp_insts                        12                       # Number of committed floating point instructions.
system.cpu1.commit.function_calls             1797733                       # Number of function calls committed.
system.cpu1.commit.int_insts                116594181                       # Number of committed integer instructions.
system.cpu1.commit.loads                     30174508                       # Number of loads committed
system.cpu1.commit.membars                    4200118                       # Number of memory barriers committed
system.cpu1.commit.op_class_0::No_OpClass      4200118      3.44%      3.44% # Class of committed instruction
system.cpu1.commit.op_class_0::IntAlu        76661975     62.76%     66.20% # Class of committed instruction
system.cpu1.commit.op_class_0::IntMult             44      0.00%     66.20% # Class of committed instruction
system.cpu1.commit.op_class_0::IntDiv              88      0.00%     66.20% # Class of committed instruction
system.cpu1.commit.op_class_0::FloatAdd             0      0.00%     66.20% # Class of committed instruction
system.cpu1.commit.op_class_0::FloatCmp             0      0.00%     66.20% # Class of committed instruction
system.cpu1.commit.op_class_0::FloatCvt             0      0.00%     66.20% # Class of committed instruction
system.cpu1.commit.op_class_0::FloatMult            0      0.00%     66.20% # Class of committed instruction
system.cpu1.commit.op_class_0::FloatMultAcc            0      0.00%     66.20% # Class of committed instruction
system.cpu1.commit.op_class_0::FloatDiv             0      0.00%     66.20% # Class of committed instruction
system.cpu1.commit.op_class_0::FloatMisc            0      0.00%     66.20% # Class of committed instruction
system.cpu1.commit.op_class_0::FloatSqrt            0      0.00%     66.20% # Class of committed instruction
system.cpu1.commit.op_class_0::SimdAdd              0      0.00%     66.20% # Class of committed instruction
system.cpu1.commit.op_class_0::SimdAddAcc            0      0.00%     66.20% # Class of committed instruction
system.cpu1.commit.op_class_0::SimdAlu              0      0.00%     66.20% # Class of committed instruction
system.cpu1.commit.op_class_0::SimdCmp              0      0.00%     66.20% # Class of committed instruction
system.cpu1.commit.op_class_0::SimdCvt              0      0.00%     66.20% # Class of committed instruction
system.cpu1.commit.op_class_0::SimdMisc             0      0.00%     66.20% # Class of committed instruction
system.cpu1.commit.op_class_0::SimdMult             0      0.00%     66.20% # Class of committed instruction
system.cpu1.commit.op_class_0::SimdMultAcc            0      0.00%     66.20% # Class of committed instruction
system.cpu1.commit.op_class_0::SimdShift            0      0.00%     66.20% # Class of committed instruction
system.cpu1.commit.op_class_0::SimdShiftAcc            0      0.00%     66.20% # Class of committed instruction
system.cpu1.commit.op_class_0::SimdDiv              0      0.00%     66.20% # Class of committed instruction
system.cpu1.commit.op_class_0::SimdSqrt             0      0.00%     66.20% # Class of committed instruction
system.cpu1.commit.op_class_0::SimdFloatAdd            0      0.00%     66.20% # Class of committed instruction
system.cpu1.commit.op_class_0::SimdFloatAlu            0      0.00%     66.20% # Class of committed instruction
system.cpu1.commit.op_class_0::SimdFloatCmp            0      0.00%     66.20% # Class of committed instruction
system.cpu1.commit.op_class_0::SimdFloatCvt            0      0.00%     66.20% # Class of committed instruction
system.cpu1.commit.op_class_0::SimdFloatDiv            0      0.00%     66.20% # Class of committed instruction
system.cpu1.commit.op_class_0::SimdFloatMisc            0      0.00%     66.20% # Class of committed instruction
system.cpu1.commit.op_class_0::SimdFloatMult            0      0.00%     66.20% # Class of committed instruction
system.cpu1.commit.op_class_0::SimdFloatMultAcc            0      0.00%     66.20% # Class of committed instruction
system.cpu1.commit.op_class_0::SimdFloatSqrt            0      0.00%     66.20% # Class of committed instruction
system.cpu1.commit.op_class_0::SimdReduceAdd            0      0.00%     66.20% # Class of committed instruction
system.cpu1.commit.op_class_0::SimdReduceAlu            0      0.00%     66.20% # Class of committed instruction
system.cpu1.commit.op_class_0::SimdReduceCmp            0      0.00%     66.20% # Class of committed instruction
system.cpu1.commit.op_class_0::SimdFloatReduceAdd            0      0.00%     66.20% # Class of committed instruction
system.cpu1.commit.op_class_0::SimdFloatReduceCmp            0      0.00%     66.20% # Class of committed instruction
system.cpu1.commit.op_class_0::SimdAes              0      0.00%     66.20% # Class of committed instruction
system.cpu1.commit.op_class_0::SimdAesMix            0      0.00%     66.20% # Class of committed instruction
system.cpu1.commit.op_class_0::SimdSha1Hash            0      0.00%     66.20% # Class of committed instruction
system.cpu1.commit.op_class_0::SimdSha1Hash2            0      0.00%     66.20% # Class of committed instruction
system.cpu1.commit.op_class_0::SimdSha256Hash            0      0.00%     66.20% # Class of committed instruction
system.cpu1.commit.op_class_0::SimdSha256Hash2            0      0.00%     66.20% # Class of committed instruction
system.cpu1.commit.op_class_0::SimdShaSigma2            0      0.00%     66.20% # Class of committed instruction
system.cpu1.commit.op_class_0::SimdShaSigma3            0      0.00%     66.20% # Class of committed instruction
system.cpu1.commit.op_class_0::SimdPredAlu            0      0.00%     66.20% # Class of committed instruction
system.cpu1.commit.op_class_0::MemRead       32274510     26.42%     92.62% # Class of committed instruction
system.cpu1.commit.op_class_0::MemWrite       9020157      7.38%    100.00% # Class of committed instruction
system.cpu1.commit.op_class_0::FloatMemRead            0      0.00%    100.00% # Class of committed instruction
system.cpu1.commit.op_class_0::FloatMemWrite           12      0.00%    100.00% # Class of committed instruction
system.cpu1.commit.op_class_0::IprAccess            0      0.00%    100.00% # Class of committed instruction
system.cpu1.commit.op_class_0::InstPrefetch            0      0.00%    100.00% # Class of committed instruction
system.cpu1.commit.op_class_0::total        122156904                       # Class of committed instruction
system.cpu1.commit.refs                      41294679                       # Number of memory references committed
system.cpu1.commit.swp_count                        0                       # Number of s/w prefetches committed
system.cpu1.commit.vec_insts                        0                       # Number of committed Vector instructions.
system.cpu1.committedInsts                  120056728                       # Number of Instructions Simulated
system.cpu1.committedOps                    122156904                       # Number of Ops (including micro ops) Simulated
system.cpu1.cpi                              3.955604                       # CPI: Cycles Per Instruction
system.cpu1.cpi_total                        3.955604                       # CPI: Total CPI of All Threads
system.cpu1.decode.BlockedCycles            364534202                       # Number of cycles decode is blocked
system.cpu1.decode.BranchMispred               930306                       # Number of times decode detected a branch misprediction
system.cpu1.decode.BranchResolved            20095495                       # Number of times decode resolved a branch
system.cpu1.decode.DecodedInsts             151507759                       # Number of instructions handled by decode
system.cpu1.decode.IdleCycles                29139176                       # Number of cycles decode is idle
system.cpu1.decode.RunCycles                 72095067                       # Number of cycles decode is running
system.cpu1.decode.SquashCycles               2146479                       # Number of cycles decode is squashing
system.cpu1.decode.SquashedInsts              2139313                       # Number of squashed instructions handled by decode
system.cpu1.decode.UnblockCycles              5281304                       # Number of cycles decode is unblocking
system.cpu1.dtb.accesses                            0                       # DTB accesses
system.cpu1.dtb.hits                                0                       # DTB hits
system.cpu1.dtb.misses                              0                       # DTB misses
system.cpu1.dtb.read_accesses                       0                       # DTB read accesses
system.cpu1.dtb.read_hits                           0                       # DTB read hits
system.cpu1.dtb.read_misses                         0                       # DTB read misses
system.cpu1.dtb.write_accesses                      0                       # DTB write accesses
system.cpu1.dtb.write_hits                          0                       # DTB write hits
system.cpu1.dtb.write_misses                        0                       # DTB write misses
system.cpu1.fetch.Branches                   37523276                       # Number of branches that fetch encountered
system.cpu1.fetch.CacheLines                 27095335                       # Number of cache lines fetched
system.cpu1.fetch.Cycles                    439993887                       # Number of cycles fetch has run and was not squashing or blocked
system.cpu1.fetch.IcacheSquashes               485419                       # Number of outstanding Icache misses that were squashed
system.cpu1.fetch.Insts                     165032799                       # Number of instructions fetch has processed
system.cpu1.fetch.MiscStallCycles                   1                       # Number of cycles fetch has spent waiting on interrupts, or bad addresses, or out of MSHRs
system.cpu1.fetch.SquashCycles                6060738                       # Number of cycles fetch has spent squashing
system.cpu1.fetch.branchRate                 0.079014                       # Number of branch fetches per cycle
system.cpu1.fetch.icacheStallCycles          30171971                       # Number of cycles fetch is stalled on an Icache miss
system.cpu1.fetch.predictedBranches          22648667                       # Number of branches that fetch has predicted taken
system.cpu1.fetch.rate                       0.347513                       # Number of inst fetches per cycle
system.cpu1.fetch.rateDist::samples         473196228                       # Number of instructions fetched each cycle (Total)
system.cpu1.fetch.rateDist::mean             0.355097                       # Number of instructions fetched each cycle (Total)
system.cpu1.fetch.rateDist::stdev            0.782116                       # Number of instructions fetched each cycle (Total)
system.cpu1.fetch.rateDist::underflows              0      0.00%      0.00% # Number of instructions fetched each cycle (Total)
system.cpu1.fetch.rateDist::0               366281522     77.41%     77.41% # Number of instructions fetched each cycle (Total)
system.cpu1.fetch.rateDist::1                67563040     14.28%     91.68% # Number of instructions fetched each cycle (Total)
system.cpu1.fetch.rateDist::2                22948056      4.85%     96.53% # Number of instructions fetched each cycle (Total)
system.cpu1.fetch.rateDist::3                12747945      2.69%     99.23% # Number of instructions fetched each cycle (Total)
system.cpu1.fetch.rateDist::4                 2547148      0.54%     99.77% # Number of instructions fetched each cycle (Total)
system.cpu1.fetch.rateDist::5                  516178      0.11%     99.87% # Number of instructions fetched each cycle (Total)
system.cpu1.fetch.rateDist::6                  590422      0.12%    100.00% # Number of instructions fetched each cycle (Total)
system.cpu1.fetch.rateDist::7                       9      0.00%    100.00% # Number of instructions fetched each cycle (Total)
system.cpu1.fetch.rateDist::8                    1908      0.00%    100.00% # Number of instructions fetched each cycle (Total)
system.cpu1.fetch.rateDist::overflows               0      0.00%    100.00% # Number of instructions fetched each cycle (Total)
system.cpu1.fetch.rateDist::min_value               0                       # Number of instructions fetched each cycle (Total)
system.cpu1.fetch.rateDist::max_value               8                       # Number of instructions fetched each cycle (Total)
system.cpu1.fetch.rateDist::total           473196228                       # Number of instructions fetched each cycle (Total)
system.cpu1.fp_regfile_reads                       12                       # number of floating regfile reads
system.cpu1.idleCycles                        1700635                       # Total number of cycles that the CPU has spent unscheduled due to idling
system.cpu1.iew.branchMispredicts             2234901                       # Number of branch mispredicts detected at execute
system.cpu1.iew.exec_branches                30899352                       # Number of branches executed
system.cpu1.iew.exec_nop                            0                       # number of nop insts executed
system.cpu1.iew.exec_rate                    0.281646                       # Inst execution rate
system.cpu1.iew.exec_refs                    45346155                       # number of memory reference insts executed
system.cpu1.iew.exec_stores                  11527154                       # Number of stores executed
system.cpu1.iew.exec_swp                            0                       # number of swp insts executed
system.cpu1.iew.iewBlockCycles              303552797                       # Number of cycles IEW is blocking
system.cpu1.iew.iewDispLoadInsts             36376177                       # Number of dispatched load instructions
system.cpu1.iew.iewDispNonSpecInsts           2451516                       # Number of dispatched non-speculative instructions
system.cpu1.iew.iewDispSquashedInsts          2333777                       # Number of squashed instructions skipped by dispatch
system.cpu1.iew.iewDispStoreInsts            12672236                       # Number of dispatched store instructions
system.cpu1.iew.iewDispatchedInsts          143529427                       # Number of instructions dispatched to IQ
system.cpu1.iew.iewExecLoadInsts             33819001                       # Number of load instructions executed
system.cpu1.iew.iewExecSquashedInsts          2040219                       # Number of squashed instructions skipped in execute
system.cpu1.iew.iewExecutedInsts            133753025                       # Number of executed instructions
system.cpu1.iew.iewIQFullEvents               2044825                       # Number of times the IQ has become full, causing a stall
system.cpu1.iew.iewIdleCycles                       0                       # Number of cycles IEW is idle
system.cpu1.iew.iewLSQFullEvents              7236862                       # Number of times the LSQ has become full, causing a stall
system.cpu1.iew.iewSquashCycles               2146479                       # Number of cycles IEW is squashing
system.cpu1.iew.iewUnblockCycles             11969182                       # Number of cycles IEW is unblocking
system.cpu1.iew.lsq.thread0.blockedLoads            0                       # Number of blocked loads due to partial load-store forwarding
system.cpu1.iew.lsq.thread0.cacheBlocked        86011                       # Number of times an access to memory failed due to the cache being blocked
system.cpu1.iew.lsq.thread0.forwLoads         1101003                       # Number of loads that had data forwarded from stores
system.cpu1.iew.lsq.thread0.ignoredResponses        47441                       # Number of memory responses ignored because the instruction is squashed
system.cpu1.iew.lsq.thread0.invAddrLoads            0                       # Number of loads ignored due to an invalid address
system.cpu1.iew.lsq.thread0.invAddrSwpfs            0                       # Number of software prefetches ignored due to an invalid address
system.cpu1.iew.lsq.thread0.memOrderViolation         1906                       # Number of memory ordering violations
system.cpu1.iew.lsq.thread0.rescheduledLoads        13254                       # Number of loads that were rescheduled
system.cpu1.iew.lsq.thread0.squashedLoads      6201669                       # Number of loads squashed
system.cpu1.iew.lsq.thread0.squashedStores      1552065                       # Number of stores squashed
system.cpu1.iew.memOrderViolationEvents          1906                       # Number of memory order violations
system.cpu1.iew.predictedNotTakenIncorrect       533396                       # Number of branches that were predicted not taken incorrectly
system.cpu1.iew.predictedTakenIncorrect       1701505                       # Number of branches that were predicted taken incorrectly
system.cpu1.iew.wb_consumers                 76307996                       # num instructions consuming a value
system.cpu1.iew.wb_count                    132318463                       # cumulative count of insts written-back
system.cpu1.iew.wb_fanout                    0.835034                       # average fanout of values written-back
system.cpu1.iew.wb_producers                 63719764                       # num instructions producing a value
system.cpu1.iew.wb_rate                      0.278626                       # insts written-back per cycle
system.cpu1.iew.wb_sent                     132387576                       # cumulative count of insts sent to commit
system.cpu1.int_regfile_reads               169873897                       # number of integer regfile reads
system.cpu1.int_regfile_writes               88878401                       # number of integer regfile writes
system.cpu1.ipc                              0.252806                       # IPC: Instructions Per Cycle
system.cpu1.ipc_total                        0.252806                       # IPC: Total IPC of All Threads
system.cpu1.iq.FU_type_0::No_OpClass          4200219      3.09%      3.09% # Type of FU issued
system.cpu1.iq.FU_type_0::IntAlu             85672264     63.09%     66.18% # Type of FU issued
system.cpu1.iq.FU_type_0::IntMult                  47      0.00%     66.18% # Type of FU issued
system.cpu1.iq.FU_type_0::IntDiv                   90      0.00%     66.18% # Type of FU issued
system.cpu1.iq.FU_type_0::FloatAdd                  0      0.00%     66.18% # Type of FU issued
system.cpu1.iq.FU_type_0::FloatCmp                  0      0.00%     66.18% # Type of FU issued
system.cpu1.iq.FU_type_0::FloatCvt                  0      0.00%     66.18% # Type of FU issued
system.cpu1.iq.FU_type_0::FloatMult                 0      0.00%     66.18% # Type of FU issued
system.cpu1.iq.FU_type_0::FloatMultAcc              0      0.00%     66.18% # Type of FU issued
system.cpu1.iq.FU_type_0::FloatDiv                  0      0.00%     66.18% # Type of FU issued
system.cpu1.iq.FU_type_0::FloatMisc                 0      0.00%     66.18% # Type of FU issued
system.cpu1.iq.FU_type_0::FloatSqrt                 0      0.00%     66.18% # Type of FU issued
system.cpu1.iq.FU_type_0::SimdAdd                   0      0.00%     66.18% # Type of FU issued
system.cpu1.iq.FU_type_0::SimdAddAcc                0      0.00%     66.18% # Type of FU issued
system.cpu1.iq.FU_type_0::SimdAlu                   0      0.00%     66.18% # Type of FU issued
system.cpu1.iq.FU_type_0::SimdCmp                   0      0.00%     66.18% # Type of FU issued
system.cpu1.iq.FU_type_0::SimdCvt                   0      0.00%     66.18% # Type of FU issued
system.cpu1.iq.FU_type_0::SimdMisc                  0      0.00%     66.18% # Type of FU issued
system.cpu1.iq.FU_type_0::SimdMult                  0      0.00%     66.18% # Type of FU issued
system.cpu1.iq.FU_type_0::SimdMultAcc               0      0.00%     66.18% # Type of FU issued
system.cpu1.iq.FU_type_0::SimdShift                 0      0.00%     66.18% # Type of FU issued
system.cpu1.iq.FU_type_0::SimdShiftAcc              0      0.00%     66.18% # Type of FU issued
system.cpu1.iq.FU_type_0::SimdDiv                   0      0.00%     66.18% # Type of FU issued
system.cpu1.iq.FU_type_0::SimdSqrt                  0      0.00%     66.18% # Type of FU issued
system.cpu1.iq.FU_type_0::SimdFloatAdd              0      0.00%     66.18% # Type of FU issued
system.cpu1.iq.FU_type_0::SimdFloatAlu              0      0.00%     66.18% # Type of FU issued
system.cpu1.iq.FU_type_0::SimdFloatCmp              0      0.00%     66.18% # Type of FU issued
system.cpu1.iq.FU_type_0::SimdFloatCvt              0      0.00%     66.18% # Type of FU issued
system.cpu1.iq.FU_type_0::SimdFloatDiv              0      0.00%     66.18% # Type of FU issued
system.cpu1.iq.FU_type_0::SimdFloatMisc             0      0.00%     66.18% # Type of FU issued
system.cpu1.iq.FU_type_0::SimdFloatMult             0      0.00%     66.18% # Type of FU issued
system.cpu1.iq.FU_type_0::SimdFloatMultAcc            0      0.00%     66.18% # Type of FU issued
system.cpu1.iq.FU_type_0::SimdFloatSqrt             0      0.00%     66.18% # Type of FU issued
system.cpu1.iq.FU_type_0::SimdReduceAdd             0      0.00%     66.18% # Type of FU issued
system.cpu1.iq.FU_type_0::SimdReduceAlu             0      0.00%     66.18% # Type of FU issued
system.cpu1.iq.FU_type_0::SimdReduceCmp             0      0.00%     66.18% # Type of FU issued
system.cpu1.iq.FU_type_0::SimdFloatReduceAdd            0      0.00%     66.18% # Type of FU issued
system.cpu1.iq.FU_type_0::SimdFloatReduceCmp            0      0.00%     66.18% # Type of FU issued
system.cpu1.iq.FU_type_0::SimdAes                   0      0.00%     66.18% # Type of FU issued
system.cpu1.iq.FU_type_0::SimdAesMix                0      0.00%     66.18% # Type of FU issued
system.cpu1.iq.FU_type_0::SimdSha1Hash              0      0.00%     66.18% # Type of FU issued
system.cpu1.iq.FU_type_0::SimdSha1Hash2             0      0.00%     66.18% # Type of FU issued
system.cpu1.iq.FU_type_0::SimdSha256Hash            0      0.00%     66.18% # Type of FU issued
system.cpu1.iq.FU_type_0::SimdSha256Hash2            0      0.00%     66.18% # Type of FU issued
system.cpu1.iq.FU_type_0::SimdShaSigma2             0      0.00%     66.18% # Type of FU issued
system.cpu1.iq.FU_type_0::SimdShaSigma3             0      0.00%     66.18% # Type of FU issued
system.cpu1.iq.FU_type_0::SimdPredAlu               0      0.00%     66.18% # Type of FU issued
system.cpu1.iq.FU_type_0::MemRead            36407581     26.81%     92.99% # Type of FU issued
system.cpu1.iq.FU_type_0::MemWrite            9513031      7.01%    100.00% # Type of FU issued
system.cpu1.iq.FU_type_0::FloatMemRead              0      0.00%    100.00% # Type of FU issued
system.cpu1.iq.FU_type_0::FloatMemWrite            12      0.00%    100.00% # Type of FU issued
system.cpu1.iq.FU_type_0::IprAccess                 0      0.00%    100.00% # Type of FU issued
system.cpu1.iq.FU_type_0::InstPrefetch              0      0.00%    100.00% # Type of FU issued
system.cpu1.iq.FU_type_0::total             135793244                       # Type of FU issued
system.cpu1.iq.fp_alu_accesses                     16                       # Number of floating point alu accesses
system.cpu1.iq.fp_inst_queue_reads                 28                       # Number of floating instruction queue reads
system.cpu1.iq.fp_inst_queue_wakeup_accesses           12                       # Number of floating instruction queue wakeup accesses
system.cpu1.iq.fp_inst_queue_writes                12                       # Number of floating instruction queue writes
system.cpu1.iq.fu_busy_cnt                    2706286                       # FU busy when requested
system.cpu1.iq.fu_busy_rate                  0.019929                       # FU busy rate (busy events/executed inst)
system.cpu1.iq.fu_full::No_OpClass                  0      0.00%      0.00% # attempts to use FU when none available
system.cpu1.iq.fu_full::IntAlu                 448897     16.59%     16.59% # attempts to use FU when none available
system.cpu1.iq.fu_full::IntMult                     0      0.00%     16.59% # attempts to use FU when none available
system.cpu1.iq.fu_full::IntDiv                      0      0.00%     16.59% # attempts to use FU when none available
system.cpu1.iq.fu_full::FloatAdd                    0      0.00%     16.59% # attempts to use FU when none available
system.cpu1.iq.fu_full::FloatCmp                    0      0.00%     16.59% # attempts to use FU when none available
system.cpu1.iq.fu_full::FloatCvt                    0      0.00%     16.59% # attempts to use FU when none available
system.cpu1.iq.fu_full::FloatMult                   0      0.00%     16.59% # attempts to use FU when none available
system.cpu1.iq.fu_full::FloatMultAcc                0      0.00%     16.59% # attempts to use FU when none available
system.cpu1.iq.fu_full::FloatDiv                    0      0.00%     16.59% # attempts to use FU when none available
system.cpu1.iq.fu_full::FloatMisc                   0      0.00%     16.59% # attempts to use FU when none available
system.cpu1.iq.fu_full::FloatSqrt                   0      0.00%     16.59% # attempts to use FU when none available
system.cpu1.iq.fu_full::SimdAdd                     0      0.00%     16.59% # attempts to use FU when none available
system.cpu1.iq.fu_full::SimdAddAcc                  0      0.00%     16.59% # attempts to use FU when none available
system.cpu1.iq.fu_full::SimdAlu                     0      0.00%     16.59% # attempts to use FU when none available
system.cpu1.iq.fu_full::SimdCmp                     0      0.00%     16.59% # attempts to use FU when none available
system.cpu1.iq.fu_full::SimdCvt                     0      0.00%     16.59% # attempts to use FU when none available
system.cpu1.iq.fu_full::SimdMisc                    0      0.00%     16.59% # attempts to use FU when none available
system.cpu1.iq.fu_full::SimdMult                    0      0.00%     16.59% # attempts to use FU when none available
system.cpu1.iq.fu_full::SimdMultAcc                 0      0.00%     16.59% # attempts to use FU when none available
system.cpu1.iq.fu_full::SimdShift                   0      0.00%     16.59% # attempts to use FU when none available
system.cpu1.iq.fu_full::SimdShiftAcc                0      0.00%     16.59% # attempts to use FU when none available
system.cpu1.iq.fu_full::SimdDiv                     0      0.00%     16.59% # attempts to use FU when none available
system.cpu1.iq.fu_full::SimdSqrt                    0      0.00%     16.59% # attempts to use FU when none available
system.cpu1.iq.fu_full::SimdFloatAdd                0      0.00%     16.59% # attempts to use FU when none available
system.cpu1.iq.fu_full::SimdFloatAlu                0      0.00%     16.59% # attempts to use FU when none available
system.cpu1.iq.fu_full::SimdFloatCmp                0      0.00%     16.59% # attempts to use FU when none available
system.cpu1.iq.fu_full::SimdFloatCvt                0      0.00%     16.59% # attempts to use FU when none available
system.cpu1.iq.fu_full::SimdFloatDiv                0      0.00%     16.59% # attempts to use FU when none available
system.cpu1.iq.fu_full::SimdFloatMisc               0      0.00%     16.59% # attempts to use FU when none available
system.cpu1.iq.fu_full::SimdFloatMult               0      0.00%     16.59% # attempts to use FU when none available
system.cpu1.iq.fu_full::SimdFloatMultAcc            0      0.00%     16.59% # attempts to use FU when none available
system.cpu1.iq.fu_full::SimdFloatSqrt               0      0.00%     16.59% # attempts to use FU when none available
system.cpu1.iq.fu_full::SimdReduceAdd               0      0.00%     16.59% # attempts to use FU when none available
system.cpu1.iq.fu_full::SimdReduceAlu               0      0.00%     16.59% # attempts to use FU when none available
system.cpu1.iq.fu_full::SimdReduceCmp               0      0.00%     16.59% # attempts to use FU when none available
system.cpu1.iq.fu_full::SimdFloatReduceAdd            0      0.00%     16.59% # attempts to use FU when none available
system.cpu1.iq.fu_full::SimdFloatReduceCmp            0      0.00%     16.59% # attempts to use FU when none available
system.cpu1.iq.fu_full::SimdAes                     0      0.00%     16.59% # attempts to use FU when none available
system.cpu1.iq.fu_full::SimdAesMix                  0      0.00%     16.59% # attempts to use FU when none available
system.cpu1.iq.fu_full::SimdSha1Hash                0      0.00%     16.59% # attempts to use FU when none available
system.cpu1.iq.fu_full::SimdSha1Hash2               0      0.00%     16.59% # attempts to use FU when none available
system.cpu1.iq.fu_full::SimdSha256Hash              0      0.00%     16.59% # attempts to use FU when none available
system.cpu1.iq.fu_full::SimdSha256Hash2             0      0.00%     16.59% # attempts to use FU when none available
system.cpu1.iq.fu_full::SimdShaSigma2               0      0.00%     16.59% # attempts to use FU when none available
system.cpu1.iq.fu_full::SimdShaSigma3               0      0.00%     16.59% # attempts to use FU when none available
system.cpu1.iq.fu_full::SimdPredAlu                 0      0.00%     16.59% # attempts to use FU when none available
system.cpu1.iq.fu_full::MemRead               1814986     67.07%     83.65% # attempts to use FU when none available
system.cpu1.iq.fu_full::MemWrite               442399     16.35%    100.00% # attempts to use FU when none available
[...]
system.cpu1.dcache.ReadReq_avg_mshr_miss_latency::total 65547.710584                       # average ReadReq mshr miss latency
system.cpu1.dcache.WriteReq_hits::.cpu1.data      2093933                       # number of WriteReq hits
system.cpu1.dcache.WriteReq_hits::total       2093933                       # number of WriteReq hits
system.cpu1.dcache.WriteReq_misses::.cpu1.data      2095055                       # number of WriteReq misses
system.cpu1.dcache.WriteReq_misses::total      2095055                       # number of WriteReq misses
system.cpu1.dcache.WriteReq_miss_latency::.cpu1.data 128156451834                       # number of WriteReq miss cycles
system.cpu1.dcache.WriteReq_miss_latency::total 128156451834                       # number of WriteReq miss cycles
system.cpu1.dcache.WriteReq_accesses::.cpu1.data      4188988                       # number of WriteReq accesses(hits+misses)
system.cpu1.dcache.WriteReq_accesses::total      4188988                       # number of WriteReq accesses(hits+misses)
system.cpu1.dcache.WriteReq_miss_rate::.cpu1.data     0.500134                       # miss rate for WriteReq accesses
system.cpu1.dcache.WriteReq_miss_rate::total     0.500134                       # miss rate for WriteReq accesses
system.cpu1.dcache.WriteReq_avg_miss_latency::.cpu1.data 61170.924789                       # average WriteReq miss latency
system.cpu1.dcache.WriteReq_avg_miss_latency::total 61170.924789                       # average WriteReq miss latency
system.cpu1.dcache.WriteReq_mshr_hits::.cpu1.data      1874007                       # number of WriteReq MSHR hits
system.cpu1.dcache.WriteReq_mshr_hits::total      1874007                       # number of WriteReq MSHR hits
system.cpu1.dcache.WriteReq_mshr_misses::.cpu1.data       221048                       # number of WriteReq MSHR misses
system.cpu1.dcache.WriteReq_mshr_misses::total       221048                       # number of WriteReq MSHR misses
system.cpu1.dcache.WriteReq_mshr_miss_latency::.cpu1.data  15730565425                       # number of WriteReq MSHR miss cycles
system.cpu1.dcache.WriteReq_mshr_miss_latency::total  15730565425                       # number of WriteReq MSHR miss cycles
system.cpu1.dcache.WriteReq_mshr_miss_rate::.cpu1.data     0.052769                       # mshr miss rate for WriteReq accesses
system.cpu1.dcache.WriteReq_mshr_miss_rate::total     0.052769                       # mshr miss rate for WriteReq accesses
system.cpu1.dcache.WriteReq_avg_mshr_miss_latency::.cpu1.data 71163.572731                       # average WriteReq mshr miss latency
system.cpu1.dcache.WriteReq_avg_mshr_miss_latency::total 71163.572731                       # average WriteReq mshr miss latency
system.cpu1.dcache.LoadLockedReq_hits::.cpu1.data        35393                       # number of LoadLockedReq hits
system.cpu1.dcache.LoadLockedReq_hits::total        35393                       # number of LoadLockedReq hits
system.cpu1.dcache.LoadLockedReq_misses::.cpu1.data          390                       # number of LoadLockedReq misses
system.cpu1.dcache.LoadLockedReq_misses::total          390                       # number of LoadLockedReq misses
system.cpu1.dcache.LoadLockedReq_miss_latency::.cpu1.data     28989500                       # number of LoadLockedReq miss cycles
system.cpu1.dcache.LoadLockedReq_miss_latency::total     28989500                       # number of LoadLockedReq miss cycles
system.cpu1.dcache.LoadLockedReq_accesses::.cpu1.data        35783                       # number of LoadLockedReq accesses(hits+misses)
system.cpu1.dcache.LoadLockedReq_accesses::total        35783                       # number of LoadLockedReq accesses(hits+misses)
system.cpu1.dcache.LoadLockedReq_miss_rate::.cpu1.data     0.010899                       # miss rate for LoadLockedReq accesses
system.cpu1.dcache.LoadLockedReq_miss_rate::total     0.010899                       # miss rate for LoadLockedReq accesses
system.cpu1.dcache.LoadLockedReq_avg_miss_latency::.cpu1.data 74332.051282                       # average LoadLockedReq miss latency
system.cpu1.dcache.LoadLockedReq_avg_miss_latency::total 74332.051282                       # average LoadLockedReq miss latency
system.cpu1.dcache.LoadLockedReq_mshr_hits::.cpu1.data          179                       # number of LoadLockedReq MSHR hits
system.cpu1.dcache.LoadLockedReq_mshr_hits::total          179                       # number of LoadLockedReq MSHR hits
system.cpu1.dcache.LoadLockedReq_mshr_misses::.cpu1.data          211                       # number of LoadLockedReq MSHR misses
system.cpu1.dcache.LoadLockedReq_mshr_misses::total          211                       # number of LoadLockedReq MSHR misses
system.cpu1.dcache.LoadLockedReq_mshr_miss_latency::.cpu1.data     15590000                       # number of LoadLockedReq MSHR miss cycles
system.cpu1.dcache.LoadLockedReq_mshr_miss_latency::total     15590000                       # number of LoadLockedReq MSHR miss cycles
system.cpu1.dcache.LoadLockedReq_mshr_miss_rate::.cpu1.data     0.005897                       # mshr miss rate for LoadLockedReq accesses
system.cpu1.dcache.LoadLockedReq_mshr_miss_rate::total     0.005897                       # mshr miss rate for LoadLockedReq accesses
system.cpu1.dcache.LoadLockedReq_avg_mshr_miss_latency::.cpu1.data 73886.255924                       # average LoadLockedReq mshr miss latency
system.cpu1.dcache.LoadLockedReq_avg_mshr_miss_latency::total 73886.255924                       # average LoadLockedReq mshr miss latency
system.cpu1.dcache.StoreCondReq_hits::.cpu1.data        34991                       # number of StoreCondReq hits
system.cpu1.dcache.StoreCondReq_hits::total        34991                       # number of StoreCondReq hits
system.cpu1.dcache.StoreCondReq_misses::.cpu1.data          661                       # number of StoreCondReq misses
system.cpu1.dcache.StoreCondReq_misses::total          661                       # number of StoreCondReq misses
system.cpu1.dcache.StoreCondReq_miss_latency::.cpu1.data      5753500                       # number of StoreCondReq miss cycles
system.cpu1.dcache.StoreCondReq_miss_latency::total      5753500                       # number of StoreCondReq miss cycles
system.cpu1.dcache.StoreCondReq_accesses::.cpu1.data        35652                       # number of StoreCondReq accesses(hits+misses)
system.cpu1.dcache.StoreCondReq_accesses::total        35652                       # number of StoreCondReq accesses(hits+misses)
system.cpu1.dcache.StoreCondReq_miss_rate::.cpu1.data     0.018540                       # miss rate for StoreCondReq accesses
system.cpu1.dcache.StoreCondReq_miss_rate::total     0.018540                       # miss rate for StoreCondReq accesses
system.cpu1.dcache.StoreCondReq_avg_miss_latency::.cpu1.data  8704.236006                       # average StoreCondReq miss latency
system.cpu1.dcache.StoreCondReq_avg_miss_latency::total  8704.236006                       # average StoreCondReq miss latency
system.cpu1.dcache.StoreCondReq_mshr_misses::.cpu1.data          661                       # number of StoreCondReq MSHR misses
system.cpu1.dcache.StoreCondReq_mshr_misses::total          661                       # number of StoreCondReq MSHR misses
system.cpu1.dcache.StoreCondReq_mshr_miss_latency::.cpu1.data      5103500                       # number of StoreCondReq MSHR miss cycles
system.cpu1.dcache.StoreCondReq_mshr_miss_latency::total      5103500                       # number of StoreCondReq MSHR miss cycles
system.cpu1.dcache.StoreCondReq_mshr_miss_rate::.cpu1.data     0.018540                       # mshr miss rate for StoreCondReq accesses
system.cpu1.dcache.StoreCondReq_mshr_miss_rate::total     0.018540                       # mshr miss rate for StoreCondReq accesses
system.cpu1.dcache.StoreCondReq_avg_mshr_miss_latency::.cpu1.data  7720.877458                       # average StoreCondReq mshr miss latency
system.cpu1.dcache.StoreCondReq_avg_mshr_miss_latency::total  7720.877458                       # average StoreCondReq mshr miss latency
system.cpu1.dcache.StoreCondFailReq_miss_latency::.cpu1.data       152500                       # number of StoreCondFailReq miss cycles
system.cpu1.dcache.StoreCondFailReq_miss_latency::total       152500                       # number of StoreCondFailReq miss cycles
system.cpu1.dcache.StoreCondFailReq_avg_miss_latency::.cpu1.data          inf                       # average StoreCondFailReq miss latency
system.cpu1.dcache.StoreCondFailReq_avg_miss_latency::total          inf                       # average StoreCondFailReq miss latency
system.cpu1.dcache.StoreCondFailReq_mshr_miss_latency::.cpu1.data       141500                       # number of StoreCondFailReq MSHR miss cycles
system.cpu1.dcache.StoreCondFailReq_mshr_miss_latency::total       141500                       # number of StoreCondFailReq MSHR miss cycles
system.cpu1.dcache.StoreCondFailReq_avg_mshr_miss_latency::.cpu1.data          inf                       # average StoreCondFailReq mshr miss latency
system.cpu1.dcache.StoreCondFailReq_avg_mshr_miss_latency::total          inf                       # average StoreCondFailReq mshr miss latency
system.cpu1.dcache.SwapReq_hits::.cpu1.data          931                       # number of SwapReq hits
system.cpu1.dcache.SwapReq_hits::total            931                       # number of SwapReq hits
system.cpu1.dcache.SwapReq_misses::.cpu1.data          637                       # number of SwapReq misses
system.cpu1.dcache.SwapReq_misses::total          637                       # number of SwapReq misses
system.cpu1.dcache.SwapReq_miss_latency::.cpu1.data      7622500                       # number of SwapReq miss cycles
system.cpu1.dcache.SwapReq_miss_latency::total      7622500                       # number of SwapReq miss cycles
system.cpu1.dcache.SwapReq_accesses::.cpu1.data         1568                       # number of SwapReq accesses(hits+misses)
system.cpu1.dcache.SwapReq_accesses::total         1568                       # number of SwapReq accesses(hits+misses)
system.cpu1.dcache.SwapReq_miss_rate::.cpu1.data     0.406250                       # miss rate for SwapReq accesses
system.cpu1.dcache.SwapReq_miss_rate::total     0.406250                       # miss rate for SwapReq accesses
system.cpu1.dcache.SwapReq_avg_miss_latency::.cpu1.data 11966.248038                       # average SwapReq miss latency
system.cpu1.dcache.SwapReq_avg_miss_latency::total 11966.248038                       # average SwapReq miss latency
system.cpu1.dcache.SwapReq_mshr_misses::.cpu1.data          637                       # number of SwapReq MSHR misses
system.cpu1.dcache.SwapReq_mshr_misses::total          637                       # number of SwapReq MSHR misses
system.cpu1.dcache.SwapReq_mshr_miss_latency::.cpu1.data      6985500                       # number of SwapReq MSHR miss cycles
system.cpu1.dcache.SwapReq_mshr_miss_latency::total      6985500                       # number of SwapReq MSHR miss cycles
system.cpu1.dcache.SwapReq_mshr_miss_rate::.cpu1.data     0.406250                       # mshr miss rate for SwapReq accesses
system.cpu1.dcache.SwapReq_mshr_miss_rate::total     0.406250                       # mshr miss rate for SwapReq accesses
system.cpu1.dcache.SwapReq_avg_mshr_miss_latency::.cpu1.data 10966.248038                       # average SwapReq mshr miss latency
system.cpu1.dcache.SwapReq_avg_mshr_miss_latency::total 10966.248038                       # average SwapReq mshr miss latency
system.cpu1.dcache.tags.pwrStateResidencyTicks::UNDEFINED  69973020500                       # Cumulative time (in ticks) in various power states
system.cpu1.dcache.tags.tagsinuse           31.749375                       # Cycle average of tags in use
system.cpu1.dcache.tags.total_refs           14541657                       # Total number of references to valid blocks.
system.cpu1.dcache.tags.sampled_refs           995753                       # Sample count of references to valid blocks.
system.cpu1.dcache.tags.avg_refs            14.603679                       # Average number of references to valid blocks.
system.cpu1.dcache.tags.warmup_cycle                0                       # Cycle when the warmup percentage was hit.
system.cpu1.dcache.tags.occ_blocks::.cpu1.data    31.749375                       # Average occupied blocks per requestor
system.cpu1.dcache.tags.occ_percent::.cpu1.data     0.992168                       # Average percentage of cache occupancy
system.cpu1.dcache.tags.occ_percent::total     0.992168                       # Average percentage of cache occupancy
system.cpu1.dcache.tags.occ_task_id_blocks::1024           28                       # Occupied blocks per task id
system.cpu1.dcache.tags.age_task_id_blocks_1024::1            3                       # Occupied blocks per task id
system.cpu1.dcache.tags.age_task_id_blocks_1024::2           25                       # Occupied blocks per task id
system.cpu1.dcache.tags.occ_task_id_percent::1024     0.875000                       # Percentage of cache occupancy per task id
system.cpu1.dcache.tags.tag_accesses         45157878                       # Number of tag accesses
system.cpu1.dcache.tags.data_accesses        45157878                       # Number of data accesses
system.cpu_clk_domain.clock                       500                       # Clock period in ticks
system.tol2bus.pwrStateResidencyTicks::UNDEFINED  69973020500                       # Cumulative time (in ticks) in various power states
system.tol2bus.trans_dist::ReadResp           1650159                       # Transaction distribution
system.tol2bus.trans_dist::WritebackDirty      1860891                       # Transaction distribution
system.tol2bus.trans_dist::WritebackClean      1190080                       # Transaction distribution
system.tol2bus.trans_dist::CleanEvict         4112106                       # Transaction distribution
system.tol2bus.trans_dist::HardPFReq          3547662                       # Transaction distribution
system.tol2bus.trans_dist::UpgradeReq            1886                       # Transaction distribution
system.tol2bus.trans_dist::SCUpgradeReq          1512                       # Transaction distribution
system.tol2bus.trans_dist::UpgradeResp           3398                       # Transaction distribution
system.tol2bus.trans_dist::SCUpgradeFailReq           12                       # Transaction distribution
system.tol2bus.trans_dist::UpgradeFailResp           12                       # Transaction distribution
system.tol2bus.trans_dist::ReadExReq           475716                       # Transaction distribution
system.tol2bus.trans_dist::ReadExResp          475717                       # Transaction distribution
system.tol2bus.trans_dist::ReadCleanReq         86591                       # Transaction distribution
system.tol2bus.trans_dist::ReadSharedReq      1563568                       # Transaction distribution
system.tol2bus.trans_dist::InvalidateReq         1103                       # Transaction distribution
system.tol2bus.trans_dist::InvalidateResp         1103                       # Transaction distribution
system.tol2bus.pkt_count_system.cpu0.icache.mem_side::system.l2.cpu_side       215090                       # Packet count per connected master and slave (bytes)
system.tol2bus.pkt_count_system.cpu0.dcache.mem_side::system.l2.cpu_side      3132563                       # Packet count per connected master and slave (bytes)
system.tol2bus.pkt_count_system.cpu1.icache.mem_side::system.l2.cpu_side        44637                       # Packet count per connected master and slave (bytes)
system.tol2bus.pkt_count_system.cpu1.dcache.mem_side::system.l2.cpu_side      2984892                       # Packet count per connected master and slave (bytes)
system.tol2bus.pkt_count::total               6377182                       # Packet count per connected master and slave (bytes)
system.tol2bus.pkt_size_system.cpu0.icache.mem_side::system.l2.cpu_side      9176192                       # Cumulative packet size per connected master and slave (bytes)
system.tol2bus.pkt_size_system.cpu0.dcache.mem_side::system.l2.cpu_side    133413952                       # Cumulative packet size per connected master and slave (bytes)
system.tol2bus.pkt_size_system.cpu1.icache.mem_side::system.l2.cpu_side      1904512                       # Cumulative packet size per connected master and slave (bytes)
system.tol2bus.pkt_size_system.cpu1.dcache.mem_side::system.l2.cpu_side    127179072                       # Cumulative packet size per connected master and slave (bytes)
system.tol2bus.pkt_size::total              271673728                       # Cumulative packet size per connected master and slave (bytes)
system.tol2bus.snoops                         8594334                       # Total snoops (count)
system.tol2bus.snoopTraffic                  59645248                       # Total snoop traffic (bytes)
system.tol2bus.snoop_fanout::samples         10718194                       # Request fanout histogram
system.tol2bus.snoop_fanout::mean            0.160005                       # Request fanout histogram
system.tol2bus.snoop_fanout::stdev           0.374629                       # Request fanout histogram
system.tol2bus.snoop_fanout::underflows             0      0.00%      0.00% # Request fanout histogram
system.tol2bus.snoop_fanout::0                9035084     84.30%     84.30% # Request fanout histogram
system.tol2bus.snoop_fanout::1                1651258     15.41%     99.70% # Request fanout histogram
system.tol2bus.snoop_fanout::2                  31852      0.30%    100.00% # Request fanout histogram
system.tol2bus.snoop_fanout::3                      0      0.00%    100.00% # Request fanout histogram
system.tol2bus.snoop_fanout::4                      0      0.00%    100.00% # Request fanout histogram
system.tol2bus.snoop_fanout::5                      0      0.00%    100.00% # Request fanout histogram
system.tol2bus.snoop_fanout::6                      0      0.00%    100.00% # Request fanout histogram
system.tol2bus.snoop_fanout::7                      0      0.00%    100.00% # Request fanout histogram
system.tol2bus.snoop_fanout::8                      0      0.00%    100.00% # Request fanout histogram
system.tol2bus.snoop_fanout::overflows              0      0.00%    100.00% # Request fanout histogram
system.tol2bus.snoop_fanout::min_value              0                       # Request fanout histogram
system.tol2bus.snoop_fanout::max_value              2                       # Request fanout histogram
system.tol2bus.snoop_fanout::total           10718194                       # Request fanout histogram
system.tol2bus.reqLayer0.occupancy         4249630974                       # Layer occupancy (ticks)
system.tol2bus.reqLayer0.utilization              6.1                       # Layer utilization (%)
system.tol2bus.respLayer1.occupancy        1568048956                       # Layer occupancy (ticks)
system.tol2bus.respLayer1.utilization             2.2                       # Layer utilization (%)
system.tol2bus.respLayer0.occupancy         107629876                       # Layer occupancy (ticks)
system.tol2bus.respLayer0.utilization             0.2                       # Layer utilization (%)
system.tol2bus.respLayer3.occupancy        1495069700                       # Layer occupancy (ticks)
system.tol2bus.respLayer3.utilization             2.1                       # Layer utilization (%)
system.tol2bus.respLayer2.occupancy          22489657                       # Layer occupancy (ticks)
system.tol2bus.respLayer2.utilization             0.0                       # Layer utilization (%)

---------- End Simulation Statistics   ----------
