
---------- Begin Simulation Statistics ----------
final_tick                               1261978354500                       # Number of ticks from beginning of simulation (restored from checkpoints and never reset)
host_inst_rate                                  59082                       # Simulator instruction rate (inst/s)
host_mem_usage                                 702520                       # Number of bytes of host memory used
host_op_rate                                    59255                       # Simulator op (including micro ops) rate (op/s)
host_seconds                                 24316.30                       # Real time elapsed on the host
host_tick_rate                               51898464                       # Simulator tick rate (ticks/s)
sim_freq                                 1000000000000                       # Frequency of simulated ticks
sim_insts                                  1436656990                       # Number of instructions simulated
sim_ops                                    1440860737                       # Number of ops (including micro ops) simulated
sim_seconds                                  1.261978                       # Number of seconds simulated
sim_ticks                                1261978354500                       # Number of ticks simulated
system.cpu0.branchPred.BTBCorrect                   0                       # Number of correct BTB predictions (this stat may not work properly.
system.cpu0.branchPred.BTBHitPct            87.591538                       # BTB Hit Percentage
system.cpu0.branchPred.BTBHits              199127657                       # Number of BTB hits
system.cpu0.branchPred.BTBLookups           227336636                       # Number of BTB lookups
system.cpu0.branchPred.RASInCorrect                 0                       # Number of incorrect RAS predictions.
system.cpu0.branchPred.condIncorrect         34403225                       # Number of conditional branches incorrect
system.cpu0.branchPred.condPredicted        290441953                       # Number of conditional branches predicted
system.cpu0.branchPred.indirectHits          26033608                       # Number of indirect target hits.
system.cpu0.branchPred.indirectLookups       27015069                       # Number of indirect predictor lookups.
system.cpu0.branchPred.indirectMisses          981461                       # Number of indirect misses.
system.cpu0.branchPred.lookups              375209013                       # Number of BP lookups
system.cpu0.branchPred.usedRAS                      0                       # Number of times the RAS was used to get a target.
system.cpu0.branchPredindirectMispredicted      2189095                       # Number of mispredicted indirect branches.
system.cpu0.commit.amos                       2100293                       # Number of atomic instructions committed
system.cpu0.commit.branchMispredicts         18199573                       # The number of times a branch was mispredicted
system.cpu0.commit.branches                 329548433                       # Number of branches committed
system.cpu0.commit.bw_lim_events             39131458                       # number cycles where commit BW limit reached
system.cpu0.commit.commitNonSpecStalls        6309760                       # The number of times commit has been forced to stall to communicate backwards
system.cpu0.commit.commitSquashedInsts      171991789                       # The number of squashed insts skipped by commit
system.cpu0.commit.committedInsts          1316568549                       # Number of instructions committed
system.cpu0.commit.committedOps            1318672122                       # Number of ops (including micro ops) committed
system.cpu0.commit.committed_per_cycle::samples   2334361994                       # Number of insts commited each cycle
system.cpu0.commit.committed_per_cycle::mean     0.564896                       # Number of insts commited each cycle
system.cpu0.commit.committed_per_cycle::stdev     1.351924                       # Number of insts commited each cycle
system.cpu0.commit.committed_per_cycle::underflows            0      0.00%      0.00% # Number of insts commited each cycle
system.cpu0.commit.committed_per_cycle::0   1716665074     73.54%     73.54% # Number of insts commited each cycle
system.cpu0.commit.committed_per_cycle::1    357301108     15.31%     88.85% # Number of insts commited each cycle
system.cpu0.commit.committed_per_cycle::2     90573052      3.88%     92.73% # Number of insts commited each cycle
system.cpu0.commit.committed_per_cycle::3     83450274      3.57%     96.30% # Number of insts commited each cycle
system.cpu0.commit.committed_per_cycle::4     31169763      1.34%     97.64% # Number of insts commited each cycle
system.cpu0.commit.committed_per_cycle::5      7387759      0.32%     97.95% # Number of insts commited each cycle
system.cpu0.commit.committed_per_cycle::6      5579965      0.24%     98.19% # Number of insts commited each cycle
system.cpu0.commit.committed_per_cycle::7      3103541      0.13%     98.32% # Number of insts commited each cycle
system.cpu0.commit.committed_per_cycle::8     39131458      1.68%    100.00% # Number of insts commited each cycle
system.cpu0.commit.committed_per_cycle::overflows            0      0.00%    100.00% # Number of insts commited each cycle
system.cpu0.commit.committed_per_cycle::min_value            0                       # Number of insts commited each cycle
system.cpu0.commit.committed_per_cycle::max_value            8                       # Number of insts commited each cycle
system.cpu0.commit.committed_per_cycle::total   2334361994                       # Number of insts commited each cycle
system.cpu0.commit.fp_insts                        50                       # Number of committed floating point instructions.
system.cpu0.commit.function_calls            25143627                       # Number of function calls committed.
system.cpu0.commit.int_insts               1273940077                       # Number of committed integer instructions.
system.cpu0.commit.loads                    405172229                       # Number of loads committed
system.cpu0.commit.membars                    4203735                       # Number of memory barriers committed
system.cpu0.commit.op_class_0::No_OpClass      4203741      0.32%      0.32% # Class of committed instruction
system.cpu0.commit.op_class_0::IntAlu       742076585     56.27%     56.59% # Class of committed instruction
system.cpu0.commit.op_class_0::IntMult       11833032      0.90%     57.49% # Class of committed instruction
system.cpu0.commit.op_class_0::IntDiv         2099835      0.16%     57.65% # Class of committed instruction
system.cpu0.commit.op_class_0::FloatAdd             0      0.00%     57.65% # Class of committed instruction
system.cpu0.commit.op_class_0::FloatCmp             4      0.00%     57.65% # Class of committed instruction
system.cpu0.commit.op_class_0::FloatCvt            12      0.00%     57.65% # Class of committed instruction
system.cpu0.commit.op_class_0::FloatMult            0      0.00%     57.65% # Class of committed instruction
system.cpu0.commit.op_class_0::FloatMultAcc            0      0.00%     57.65% # Class of committed instruction
system.cpu0.commit.op_class_0::FloatDiv             2      0.00%     57.65% # Class of committed instruction
system.cpu0.commit.op_class_0::FloatMisc            4      0.00%     57.65% # Class of committed instruction
system.cpu0.commit.op_class_0::FloatSqrt            0      0.00%     57.65% # Class of committed instruction
system.cpu0.commit.op_class_0::SimdAdd              0      0.00%     57.65% # Class of committed instruction
system.cpu0.commit.op_class_0::SimdAddAcc            0      0.00%     57.65% # Class of committed instruction
system.cpu0.commit.op_class_0::SimdAlu              0      0.00%     57.65% # Class of committed instruction
system.cpu0.commit.op_class_0::SimdCmp              0      0.00%     57.65% # Class of committed instruction
system.cpu0.commit.op_class_0::SimdCvt              0      0.00%     57.65% # Class of committed instruction
system.cpu0.commit.op_class_0::SimdMisc             0      0.00%     57.65% # Class of committed instruction
system.cpu0.commit.op_class_0::SimdMult             0      0.00%     57.65% # Class of committed instruction
system.cpu0.commit.op_class_0::SimdMultAcc            0      0.00%     57.65% # Class of committed instruction
system.cpu0.commit.op_class_0::SimdShift            0      0.00%     57.65% # Class of committed instruction
system.cpu0.commit.op_class_0::SimdShiftAcc            0      0.00%     57.65% # Class of committed instruction
system.cpu0.commit.op_class_0::SimdDiv              0      0.00%     57.65% # Class of committed instruction
system.cpu0.commit.op_class_0::SimdSqrt             0      0.00%     57.65% # Class of committed instruction
system.cpu0.commit.op_class_0::SimdFloatAdd            0      0.00%     57.65% # Class of committed instruction
system.cpu0.commit.op_class_0::SimdFloatAlu            0      0.00%     57.65% # Class of committed instruction
system.cpu0.commit.op_class_0::SimdFloatCmp            0      0.00%     57.65% # Class of committed instruction
system.cpu0.commit.op_class_0::SimdFloatCvt            0      0.00%     57.65% # Class of committed instruction
system.cpu0.commit.op_class_0::SimdFloatDiv            0      0.00%     57.65% # Class of committed instruction
system.cpu0.commit.op_class_0::SimdFloatMisc            0      0.00%     57.65% # Class of committed instruction
system.cpu0.commit.op_class_0::SimdFloatMult            0      0.00%     57.65% # Class of committed instruction
system.cpu0.commit.op_class_0::SimdFloatMultAcc            0      0.00%     57.65% # Class of committed instruction
system.cpu0.commit.op_class_0::SimdFloatSqrt            0      0.00%     57.65% # Class of committed instruction
system.cpu0.commit.op_class_0::SimdReduceAdd            0      0.00%     57.65% # Class of committed instruction
system.cpu0.commit.op_class_0::SimdReduceAlu            0      0.00%     57.65% # Class of committed instruction
system.cpu0.commit.op_class_0::SimdReduceCmp            0      0.00%     57.65% # Class of committed instruction
system.cpu0.commit.op_class_0::SimdFloatReduceAdd            0      0.00%     57.65% # Class of committed instruction
system.cpu0.commit.op_class_0::SimdFloatReduceCmp            0      0.00%     57.65% # Class of committed instruction
system.cpu0.commit.op_class_0::SimdAes              0      0.00%     57.65% # Class of committed instruction
system.cpu0.commit.op_class_0::SimdAesMix            0      0.00%     57.65% # Class of committed instruction
system.cpu0.commit.op_class_0::SimdSha1Hash            0      0.00%     57.65% # Class of committed instruction
system.cpu0.commit.op_class_0::SimdSha1Hash2            0      0.00%     57.65% # Class of committed instruction
system.cpu0.commit.op_class_0::SimdSha256Hash            0      0.00%     57.65% # Class of committed instruction
system.cpu0.commit.op_class_0::SimdSha256Hash2            0      0.00%     57.65% # Class of committed instruction
system.cpu0.commit.op_class_0::SimdShaSigma2            0      0.00%     57.65% # Class of committed instruction
system.cpu0.commit.op_class_0::SimdShaSigma3            0      0.00%     57.65% # Class of committed instruction
system.cpu0.commit.op_class_0::SimdPredAlu            0      0.00%     57.65% # Class of committed instruction
system.cpu0.commit.op_class_0::MemRead      407272514     30.89%     88.53% # Class of committed instruction
system.cpu0.commit.op_class_0::MemWrite     151186365     11.47%    100.00% # Class of committed instruction
system.cpu0.commit.op_class_0::FloatMemRead            8      0.00%    100.00% # Class of committed instruction
system.cpu0.commit.op_class_0::FloatMemWrite           20      0.00%    100.00% # Class of committed instruction
system.cpu0.commit.op_class_0::IprAccess            0      0.00%    100.00% # Class of committed instruction
system.cpu0.commit.op_class_0::InstPrefetch            0      0.00%    100.00% # Class of committed instruction
system.cpu0.commit.op_class_0::total       1318672122                       # Class of committed instruction
system.cpu0.commit.refs                     558458907                       # Number of memory references committed
system.cpu0.commit.swp_count                        0                       # Number of s/w prefetches committed
system.cpu0.commit.vec_insts                        0                       # Number of committed Vector instructions.
system.cpu0.committedInsts                 1316568549                       # Number of Instructions Simulated
system.cpu0.committedOps                   1318672122                       # Number of Ops (including micro ops) Simulated
system.cpu0.cpi                              1.912402                       # CPI: Cycles Per Instruction
system.cpu0.cpi_total                        1.912402                       # CPI: Total CPI of All Threads
system.cpu0.decode.BlockedCycles            416017069                       # Number of cycles decode is blocked
system.cpu0.decode.BranchMispred             16254815                       # Number of times decode detected a branch misprediction
system.cpu0.decode.BranchResolved           191177713                       # Number of times decode resolved a branch
system.cpu0.decode.DecodedInsts            1534666170                       # Number of instructions handled by decode
system.cpu0.decode.IdleCycles               872790408                       # Number of cycles decode is idle
system.cpu0.decode.RunCycles               1055090683                       # Number of cycles decode is running
system.cpu0.decode.SquashCycles              18209661                       # Number of cycles decode is squashing
system.cpu0.decode.SquashedInsts             24613384                       # Number of squashed instructions handled by decode
system.cpu0.decode.UnblockCycles              8089813                       # Number of cycles decode is unblocking
system.cpu0.dtb.accesses                            0                       # DTB accesses
system.cpu0.dtb.hits                                0                       # DTB hits
system.cpu0.dtb.misses                              0                       # DTB misses
system.cpu0.dtb.read_accesses                       0                       # DTB read accesses
system.cpu0.dtb.read_hits                           0                       # DTB read hits
system.cpu0.dtb.read_misses                         0                       # DTB read misses
system.cpu0.dtb.write_accesses                      0                       # DTB write accesses
system.cpu0.dtb.write_hits                          0                       # DTB write hits
system.cpu0.dtb.write_misses                        0                       # DTB write misses
system.cpu0.fetch.Branches                  375209013                       # Number of branches that fetch encountered
system.cpu0.fetch.CacheLines                275726853                       # Number of cache lines fetched
system.cpu0.fetch.Cycles                   1493498242                       # Number of cycles fetch has run and was not squashing or blocked
system.cpu0.fetch.IcacheSquashes              8828258                       # Number of outstanding Icache misses that were squashed
system.cpu0.fetch.IcacheWaitRetryStallCycles          241                       # Number of stall cycles due to full MSHR
system.cpu0.fetch.Insts                    1600740515                       # Number of instructions fetch has processed
system.cpu0.fetch.MiscStallCycles                  48                       # Number of cycles fetch has spent waiting on interrupts, or bad addresses, or out of MSHRs
system.cpu0.fetch.PendingTrapStallCycles          175                       # Number of stall cycles due to pending traps
system.cpu0.fetch.SquashCycles               68826678                       # Number of cycles fetch has spent squashing
system.cpu0.fetch.branchRate                 0.149022                       # Number of branch fetches per cycle
system.cpu0.fetch.icacheStallCycles         842285589                       # Number of cycles fetch is stalled on an Icache miss
system.cpu0.fetch.predictedBranches         225161265                       # Number of branches that fetch has predicted taken
system.cpu0.fetch.rate                       0.635768                       # Number of inst fetches per cycle
system.cpu0.fetch.rateDist::samples        2370197634                       # Number of instructions fetched each cycle (Total)
system.cpu0.fetch.rateDist::mean             0.677743                       # Number of instructions fetched each cycle (Total)
system.cpu0.fetch.rateDist::stdev            0.921328                       # Number of instructions fetched each cycle (Total)
system.cpu0.fetch.rateDist::underflows              0      0.00%      0.00% # Number of instructions fetched each cycle (Total)
system.cpu0.fetch.rateDist::0              1246265581     52.58%     52.58% # Number of instructions fetched each cycle (Total)
system.cpu0.fetch.rateDist::1               829300195     34.99%     87.57% # Number of instructions fetched each cycle (Total)
system.cpu0.fetch.rateDist::2               152253874      6.42%     93.99% # Number of instructions fetched each cycle (Total)
system.cpu0.fetch.rateDist::3               113681501      4.80%     98.79% # Number of instructions fetched each cycle (Total)
system.cpu0.fetch.rateDist::4                20311301      0.86%     99.65% # Number of instructions fetched each cycle (Total)
system.cpu0.fetch.rateDist::5                 4233741      0.18%     99.82% # Number of instructions fetched each cycle (Total)
system.cpu0.fetch.rateDist::6                 2046838      0.09%     99.91% # Number of instructions fetched each cycle (Total)
system.cpu0.fetch.rateDist::7                     459      0.00%     99.91% # Number of instructions fetched each cycle (Total)
system.cpu0.fetch.rateDist::8                 2104144      0.09%    100.00% # Number of instructions fetched each cycle (Total)
system.cpu0.fetch.rateDist::overflows               0      0.00%    100.00% # Number of instructions fetched each cycle (Total)
system.cpu0.fetch.rateDist::min_value               0                       # Number of instructions fetched each cycle (Total)
system.cpu0.fetch.rateDist::max_value               8                       # Number of instructions fetched each cycle (Total)
system.cpu0.fetch.rateDist::total          2370197634                       # Number of instructions fetched each cycle (Total)
system.cpu0.fp_regfile_reads                       44                       # number of floating regfile reads
system.cpu0.fp_regfile_writes                      23                       # number of floating regfile writes
system.cpu0.idleCycles                      147610063                       # Total number of cycles that the CPU has spent unscheduled due to idling
system.cpu0.iew.branchMispredicts            18322250                       # Number of branch mispredicts detected at execute
system.cpu0.iew.exec_branches               348350192                       # Number of branches executed
system.cpu0.iew.exec_nop                            0                       # number of nop insts executed
system.cpu0.iew.exec_rate                    0.574665                       # Inst execution rate
system.cpu0.iew.exec_refs                   639695353                       # number of memory reference insts executed
system.cpu0.iew.exec_stores                 169707017                       # Number of stores executed
system.cpu0.iew.exec_swp                            0                       # number of swp insts executed
system.cpu0.iew.iewBlockCycles              343489762                       # Number of cycles IEW is blocking
system.cpu0.iew.iewDispLoadInsts            479214704                       # Number of dispatched load instructions
system.cpu0.iew.iewDispNonSpecInsts           4156845                       # Number of dispatched non-speculative instructions
system.cpu0.iew.iewDispSquashedInsts         12884328                       # Number of squashed instructions skipped by dispatch
system.cpu0.iew.iewDispStoreInsts           174817844                       # Number of dispatched store instructions
system.cpu0.iew.iewDispatchedInsts         1490597451                       # Number of instructions dispatched to IQ
system.cpu0.iew.iewExecLoadInsts            469988336                       # Number of load instructions executed
system.cpu0.iew.iewExecSquashedInsts         12509649                       # Number of squashed instructions skipped in execute
system.cpu0.iew.iewExecutedInsts           1446895778                       # Number of executed instructions
system.cpu0.iew.iewIQFullEvents               2095750                       # Number of times the IQ has become full, causing a stall
system.cpu0.iew.iewIdleCycles                       0                       # Number of cycles IEW is idle
system.cpu0.iew.iewLSQFullEvents              7964587                       # Number of times the LSQ has become full, causing a stall
system.cpu0.iew.iewSquashCycles              18209661                       # Number of cycles IEW is squashing
system.cpu0.iew.iewUnblockCycles             12437525                       # Number of cycles IEW is unblocking
system.cpu0.iew.lsq.thread0.blockedLoads            0                       # Number of blocked loads due to partial load-store forwarding
system.cpu0.iew.lsq.thread0.cacheBlocked       207844                       # Number of times an access to memory failed due to the cache being blocked
system.cpu0.iew.lsq.thread0.forwLoads        27185224                       # Number of loads that had data forwarded from stores
system.cpu0.iew.lsq.thread0.ignoredResponses        60471                       # Number of memory responses ignored because the instruction is squashed
system.cpu0.iew.lsq.thread0.invAddrLoads            0                       # Number of loads ignored due to an invalid address
system.cpu0.iew.lsq.thread0.invAddrSwpfs            0                       # Number of software prefetches ignored due to an invalid address
system.cpu0.iew.lsq.thread0.memOrderViolation         9415                       # Number of memory ordering violations
system.cpu0.iew.lsq.thread0.rescheduledLoads      8443395                       # Number of loads that were rescheduled
system.cpu0.iew.lsq.thread0.squashedLoads     74042475                       # Number of loads squashed
system.cpu0.iew.lsq.thread0.squashedStores     21531166                       # Number of stores squashed
system.cpu0.iew.memOrderViolationEvents          9415                       # Number of memory order violations
system.cpu0.iew.predictedNotTakenIncorrect       746686                       # Number of branches that were predicted not taken incorrectly
system.cpu0.iew.predictedTakenIncorrect      17575564                       # Number of branches that were predicted taken incorrectly
system.cpu0.iew.wb_consumers                661561395                       # num instructions consuming a value
system.cpu0.iew.wb_count                   1431046871                       # cumulative count of insts written-back
system.cpu0.iew.wb_fanout                    0.837575                       # average fanout of values written-back
system.cpu0.iew.wb_producers                554107529                       # num instructions producing a value
system.cpu0.iew.wb_rate                      0.568370                       # insts written-back per cycle
system.cpu0.iew.wb_sent                    1431136299                       # cumulative count of insts sent to commit
system.cpu0.int_regfile_reads              1771668450                       # number of integer regfile reads
system.cpu0.int_regfile_writes              924664372                       # number of integer regfile writes
system.cpu0.ipc                              0.522903                       # IPC: Instructions Per Cycle
system.cpu0.ipc_total                        0.522903                       # IPC: Total IPC of All Threads
system.cpu0.iq.FU_type_0::No_OpClass          4205631      0.29%      0.29% # Type of FU issued
system.cpu0.iq.FU_type_0::IntAlu            798454061     54.71%     55.00% # Type of FU issued
system.cpu0.iq.FU_type_0::IntMult            11848396      0.81%     55.81% # Type of FU issued
system.cpu0.iq.FU_type_0::IntDiv              2100468      0.14%     55.95% # Type of FU issued
system.cpu0.iq.FU_type_0::FloatAdd                  0      0.00%     55.95% # Type of FU issued
system.cpu0.iq.FU_type_0::FloatCmp                  4      0.00%     55.95% # Type of FU issued
system.cpu0.iq.FU_type_0::FloatCvt                 12      0.00%     55.95% # Type of FU issued
system.cpu0.iq.FU_type_0::FloatMult                 0      0.00%     55.95% # Type of FU issued
system.cpu0.iq.FU_type_0::FloatMultAcc              0      0.00%     55.95% # Type of FU issued
system.cpu0.iq.FU_type_0::FloatDiv                  2      0.00%     55.95% # Type of FU issued
system.cpu0.iq.FU_type_0::FloatMisc                 4      0.00%     55.95% # Type of FU issued
system.cpu0.iq.FU_type_0::FloatSqrt                 0      0.00%     55.95% # Type of FU issued
system.cpu0.iq.FU_type_0::SimdAdd                   0      0.00%     55.95% # Type of FU issued
system.cpu0.iq.FU_type_0::SimdAddAcc                0      0.00%     55.95% # Type of FU issued
system.cpu0.iq.FU_type_0::SimdAlu                   0      0.00%     55.95% # Type of FU issued
system.cpu0.iq.FU_type_0::SimdCmp                   0      0.00%     55.95% # Type of FU issued
system.cpu0.iq.FU_type_0::SimdCvt                   0      0.00%     55.95% # Type of FU issued
system.cpu0.iq.FU_type_0::SimdMisc                  0      0.00%     55.95% # Type of FU issued
system.cpu0.iq.FU_type_0::SimdMult                  0      0.00%     55.95% # Type of FU issued
system.cpu0.iq.FU_type_0::SimdMultAcc               0      0.00%     55.95% # Type of FU issued
system.cpu0.iq.FU_type_0::SimdShift                 0      0.00%     55.95% # Type of FU issued
system.cpu0.iq.FU_type_0::SimdShiftAcc              0      0.00%     55.95% # Type of FU issued
system.cpu0.iq.FU_type_0::SimdDiv                   0      0.00%     55.95% # Type of FU issued
system.cpu0.iq.FU_type_0::SimdSqrt                  0      0.00%     55.95% # Type of FU issued
system.cpu0.iq.FU_type_0::SimdFloatAdd              0      0.00%     55.95% # Type of FU issued
system.cpu0.iq.FU_type_0::SimdFloatAlu              0      0.00%     55.95% # Type of FU issued
system.cpu0.iq.FU_type_0::SimdFloatCmp              0      0.00%     55.95% # Type of FU issued
system.cpu0.iq.FU_type_0::SimdFloatCvt              0      0.00%     55.95% # Type of FU issued
system.cpu0.iq.FU_type_0::SimdFloatDiv              0      0.00%     55.95% # Type of FU issued
system.cpu0.iq.FU_type_0::SimdFloatMisc             0      0.00%     55.95% # Type of FU issued
system.cpu0.iq.FU_type_0::SimdFloatMult             0      0.00%     55.95% # Type of FU issued
system.cpu0.iq.FU_type_0::SimdFloatMultAcc            0      0.00%     55.95% # Type of FU issued
system.cpu0.iq.FU_type_0::SimdFloatSqrt             0      0.00%     55.95% # Type of FU issued
system.cpu0.iq.FU_type_0::SimdReduceAdd             0      0.00%     55.95% # Type of FU issued
system.cpu0.iq.FU_type_0::SimdReduceAlu             0      0.00%     55.95% # Type of FU issued
system.cpu0.iq.FU_type_0::SimdReduceCmp             0      0.00%     55.95% # Type of FU issued
system.cpu0.iq.FU_type_0::SimdFloatReduceAdd            0      0.00%     55.95% # Type of FU issued
system.cpu0.iq.FU_type_0::SimdFloatReduceCmp            0      0.00%     55.95% # Type of FU issued
system.cpu0.iq.FU_type_0::SimdAes                   0      0.00%     55.95% # Type of FU issued
system.cpu0.iq.FU_type_0::SimdAesMix                0      0.00%     55.95% # Type of FU issued
system.cpu0.iq.FU_type_0::SimdSha1Hash              0      0.00%     55.95% # Type of FU issued
system.cpu0.iq.FU_type_0::SimdSha1Hash2             0      0.00%     55.95% # Type of FU issued
system.cpu0.iq.FU_type_0::SimdSha256Hash            0      0.00%     55.95% # Type of FU issued
system.cpu0.iq.FU_type_0::SimdSha256Hash2            0      0.00%     55.95% # Type of FU issued
system.cpu0.iq.FU_type_0::SimdShaSigma2             0      0.00%     55.95% # Type of FU issued
system.cpu0.iq.FU_type_0::SimdShaSigma3             0      0.00%     55.95% # Type of FU issued
system.cpu0.iq.FU_type_0::SimdPredAlu               0      0.00%     55.95% # Type of FU issued
system.cpu0.iq.FU_type_0::MemRead           474894239     32.54%     88.50% # Type of FU issued
system.cpu0.iq.FU_type_0::MemWrite          167902581     11.50%    100.00% # Type of FU issued
system.cpu0.iq.FU_type_0::FloatMemRead              9      0.00%    100.00% # Type of FU issued
system.cpu0.iq.FU_type_0::FloatMemWrite            20      0.00%    100.00% # Type of FU issued
system.cpu0.iq.FU_type_0::IprAccess                 0      0.00%    100.00% # Type of FU issued
system.cpu0.iq.FU_type_0::InstPrefetch              0      0.00%    100.00% # Type of FU issued
system.cpu0.iq.FU_type_0::total            1459405427                       # Type of FU issued
system.cpu0.iq.fp_alu_accesses                     55                       # Number of floating point alu accesses
system.cpu0.iq.fp_inst_queue_reads                106                       # Number of floating instruction queue reads
system.cpu0.iq.fp_inst_queue_wakeup_accesses           51                       # Number of floating instruction queue wakeup accesses
system.cpu0.iq.fp_inst_queue_writes                52                       # Number of floating instruction queue writes
system.cpu0.iq.fu_busy_cnt                    2855119                       # FU busy when requested
system.cpu0.iq.fu_busy_rate                  0.001956                       # FU busy rate (busy events/executed inst)
system.cpu0.iq.fu_full::No_OpClass                  0      0.00%      0.00% # attempts to use FU when none available
system.cpu0.iq.fu_full::IntAlu                 451116     15.80%     15.80% # attempts to use FU when none available
system.cpu0.iq.fu_full::IntMult                     2      0.00%     15.80% # attempts to use FU when none available
system.cpu0.iq.fu_full::IntDiv                      0      0.00%     15.80% # attempts to use FU when none available
system.cpu0.iq.fu_full::FloatAdd                    0      0.00%     15.80% # attempts to use FU when none available
system.cpu0.iq.fu_full::FloatCmp                    0      0.00%     15.80% # attempts to use FU when none available
system.cpu0.iq.fu_full::FloatCvt                    0      0.00%     15.80% # attempts to use FU when none available
system.cpu0.iq.fu_full::FloatMult                   0      0.00%     15.80% # attempts to use FU when none available
system.cpu0.iq.fu_full::FloatMultAcc                0      0.00%     15.80% # attempts to use FU when none available
system.cpu0.iq.fu_full::FloatDiv                    0      0.00%     15.80% # attempts to use FU when none available
system.cpu0.iq.fu_full::FloatMisc                   0      0.00%     15.80% # attempts to use FU when none available
system.cpu0.iq.fu_full::FloatSqrt                   0      0.00%     15.80% # attempts to use FU when none available
system.cpu0.iq.fu_full::SimdAdd                     0      0.00%     15.80% # attempts to use FU when none available
system.cpu0.iq.fu_full::SimdAddAcc                  0      0.00%     15.80% # attempts to use FU when none available
system.cpu0.iq.fu_full::SimdAlu                     0      0.00%     15.80% # attempts to use FU when none available
system.cpu0.iq.fu_full::SimdCmp                     0      0.00%     15.80% # attempts to use FU when none available
system.cpu0.iq.fu_full::SimdCvt                     0      0.00%     15.80% # attempts to use FU when none available
system.cpu0.iq.fu_full::SimdMisc                    0      0.00%     15.80% # attempts to use FU when none available
system.cpu0.iq.fu_full::SimdMult                    0      0.00%     15.80% # attempts to use FU when none available
system.cpu0.iq.fu_full::SimdMultAcc                 0      0.00%     15.80% # attempts to use FU when none available
system.cpu0.iq.fu_full::SimdShift                   0      0.00%     15.80% # attempts to use FU when none available
system.cpu0.iq.fu_full::SimdShiftAcc                0      0.00%     15.80% # attempts to use FU when none available
system.cpu0.iq.fu_full::SimdDiv                     0      0.00%     15.80% # attempts to use FU when none available
system.cpu0.iq.fu_full::SimdSqrt                    0      0.00%     15.80% # attempts to use FU when none available
system.cpu0.iq.fu_full::SimdFloatAdd                0      0.00%     15.80% # attempts to use FU when none available
system.cpu0.iq.fu_full::SimdFloatAlu                0      0.00%     15.80% # attempts to use FU when none available
system.cpu0.iq.fu_full::SimdFloatCmp                0      0.00%     15.80% # attempts to use FU when none available
system.cpu0.iq.fu_full::SimdFloatCvt                0      0.00%     15.80% # attempts to use FU when none available
system.cpu0.iq.fu_full::SimdFloatDiv                0      0.00%     15.80% # attempts to use FU when none available
system.cpu0.iq.fu_full::SimdFloatMisc               0      0.00%     15.80% # attempts to use FU when none available
system.cpu0.iq.fu_full::SimdFloatMult               0      0.00%     15.80% # attempts to use FU when none available
system.cpu0.iq.fu_full::SimdFloatMultAcc            0      0.00%     15.80% # attempts to use FU when none available
system.cpu0.iq.fu_full::SimdFloatSqrt               0      0.00%     15.80% # attempts to use FU when none available
system.cpu0.iq.fu_full::SimdReduceAdd               0      0.00%     15.80% # attempts to use FU when none available
system.cpu0.iq.fu_full::SimdReduceAlu               0      0.00%     15.80% # attempts to use FU when none available
system.cpu0.iq.fu_full::SimdReduceCmp               0      0.00%     15.80% # attempts to use FU when none available
system.cpu0.iq.fu_full::SimdFloatReduceAdd            0      0.00%     15.80% # attempts to use FU when none available
system.cpu0.iq.fu_full::SimdFloatReduceCmp            0      0.00%     15.80% # attempts to use FU when none available
system.cpu0.iq.fu_full::SimdAes                     0      0.00%     15.80% # attempts to use FU when none available
system.cpu0.iq.fu_full::SimdAesMix                  0      0.00%     15.80% # attempts to use FU when none available
system.cpu0.iq.fu_full::SimdSha1Hash                0      0.00%     15.80% # attempts to use FU when none available
system.cpu0.iq.fu_full::SimdSha1Hash2               0      0.00%     15.80% # attempts to use FU when none available
system.cpu0.iq.fu_full::SimdSha256Hash              0      0.00%     15.80% # attempts to use FU when none available
system.cpu0.iq.fu_full::SimdSha256Hash2             0      0.00%     15.80% # attempts to use FU when none available
system.cpu0.iq.fu_full::SimdShaSigma2               0      0.00%     15.80% # attempts to use FU when none available
system.cpu0.iq.fu_full::SimdShaSigma3               0      0.00%     15.80% # attempts to use FU when none available
system.cpu0.iq.fu_full::SimdPredAlu                 0      0.00%     15.80% # attempts to use FU when none available
system.cpu0.iq.fu_full::MemRead               1945744     68.15%     83.95% # attempts to use FU when none available
system.cpu0.iq.fu_full::MemWrite               458253     16.05%    100.00% # attempts to use FU when none available
system.cpu0.iq.fu_full::FloatMemRead                0      0.00%    100.00% # attempts to use FU when none available
system.cpu0.iq.fu_full::FloatMemWrite               4      0.00%    100.00% # attempts to use FU when none available
system.cpu0.iq.fu_full::IprAccess                   0      0.00%    100.00% # attempts to use FU when none available
system.cpu0.iq.fu_full::InstPrefetch                0      0.00%    100.00% # attempts to use FU when none available
system.cpu0.iq.int_alu_accesses            1458054860                       # Number of integer alu accesses
system.cpu0.iq.int_inst_queue_reads        5292064982                       # Number of integer instruction queue reads
system.cpu0.iq.int_inst_queue_wakeup_accesses   1431046820                       # Number of integer instruction queue wakeup accesses
system.cpu0.iq.int_inst_queue_writes       1662531720                       # Number of integer instruction queue writes
system.cpu0.iq.iqInstsAdded                1478135442                       # Number of instructions added to the IQ (excludes non-spec)
system.cpu0.iq.iqInstsIssued               1459405427                       # Number of instructions issued
system.cpu0.iq.iqNonSpecInstsAdded           12462009                       # Number of non-speculative instructions added to the IQ
system.cpu0.iq.iqSquashedInstsExamined      171925326                       # Number of squashed instructions iterated over during squash; mainly for profiling
system.cpu0.iq.iqSquashedInstsIssued           201481                       # Number of squashed instructions issued
system.cpu0.iq.iqSquashedNonSpecRemoved       6152249                       # Number of squashed non-spec instructions that were removed
system.cpu0.iq.iqSquashedOperandsExamined     55134512                       # Number of squashed operands that are examined and possibly removed from graph
system.cpu0.iq.issued_per_cycle::samples   2370197634                       # Number of insts issued each cycle
system.cpu0.iq.issued_per_cycle::mean        0.615732                       # Number of insts issued each cycle
system.cpu0.iq.issued_per_cycle::stdev       0.854776                       # Number of insts issued each cycle
system.cpu0.iq.issued_per_cycle::underflows            0      0.00%      0.00% # Number of insts issued each cycle
system.cpu0.iq.issued_per_cycle::0         1344238547     56.71%     56.71% # Number of insts issued each cycle
system.cpu0.iq.issued_per_cycle::1          710417087     29.97%     86.69% # Number of insts issued each cycle
system.cpu0.iq.issued_per_cycle::2          222072509      9.37%     96.06% # Number of insts issued each cycle
system.cpu0.iq.issued_per_cycle::3           74875519      3.16%     99.22% # Number of insts issued each cycle
system.cpu0.iq.issued_per_cycle::4           15533041      0.66%     99.87% # Number of insts issued each cycle
system.cpu0.iq.issued_per_cycle::5            1119260      0.05%     99.92% # Number of insts issued each cycle
system.cpu0.iq.issued_per_cycle::6            1339260      0.06%     99.97% # Number of insts issued each cycle
system.cpu0.iq.issued_per_cycle::7             366547      0.02%     99.99% # Number of insts issued each cycle
system.cpu0.iq.issued_per_cycle::8             235864      0.01%    100.00% # Number of insts issued each cycle
system.cpu0.iq.issued_per_cycle::overflows            0      0.00%    100.00% # Number of insts issued each cycle
system.cpu0.iq.issued_per_cycle::min_value            0                       # Number of insts issued each cycle
system.cpu0.iq.issued_per_cycle::max_value            8                       # Number of insts issued each cycle
system.cpu0.iq.issued_per_cycle::total     2370197634                       # Number of insts issued each cycle
system.cpu0.iq.rate                          0.579633                       # Inst issue rate
system.cpu0.iq.vec_alu_accesses                     0                       # Number of vector alu accesses
system.cpu0.iq.vec_inst_queue_reads                 0                       # Number of vector instruction queue reads
system.cpu0.iq.vec_inst_queue_wakeup_accesses            0                       # Number of vector instruction queue wakeup accesses
system.cpu0.iq.vec_inst_queue_writes                0                       # Number of vector instruction queue writes
system.cpu0.itb.accesses                            0                       # DTB accesses
system.cpu0.itb.hits                                0                       # DTB hits
system.cpu0.itb.misses                              0                       # DTB misses
system.cpu0.itb.read_accesses                       0                       # DTB read accesses
system.cpu0.itb.read_hits                           0                       # DTB read hits
system.cpu0.itb.read_misses                         0                       # DTB read misses
system.cpu0.itb.write_accesses                      0                       # DTB write accesses
system.cpu0.itb.write_hits                          0                       # DTB write hits
system.cpu0.itb.write_misses                        0                       # DTB write misses
system.cpu0.memDep0.conflictingLoads         28672070                       # Number of conflicting loads.
system.cpu0.memDep0.conflictingStores         5220898                       # Number of conflicting stores.
system.cpu0.memDep0.insertedLoads           479214704                       # Number of loads inserted to the mem dependence unit.
system.cpu0.memDep0.insertedStores          174817844                       # Number of stores inserted to the mem dependence unit.
system.cpu0.misc_regfile_reads                   1895                       # number of misc regfile reads
system.cpu0.misc_regfile_writes                    22                       # number of misc regfile writes
system.cpu0.numCycles                      2517807697                       # number of cpu cycles simulated
system.cpu0.numWorkItemsCompleted                   0                       # number of work items this cpu completed
system.cpu0.numWorkItemsStarted                     0                       # number of work items this cpu started
system.cpu0.quiesceCycles                     6149014                       # Total number of cycles that CPU has spent quiesced or waiting for an interrupt
system.cpu0.rename.BlockCycles              369011070                       # Number of cycles rename is blocking
system.cpu0.rename.CommittedMaps            845210693                       # Number of HB maps that are committed
system.cpu0.rename.IQFullEvents              12731880                       # Number of times rename has blocked due to IQ full
system.cpu0.rename.IdleCycles               894330103                       # Number of cycles rename is idle
system.cpu0.rename.LQFullEvents              11116085                       # Number of times rename has blocked due to LQ full
system.cpu0.rename.ROBFullEvents                26170                       # Number of times rename has blocked due to ROB full
system.cpu0.rename.RenameLookups           1859210102                       # Number of register rename lookups that rename has made
system.cpu0.rename.RenamedInsts            1523634563                       # Number of instructions processed by rename
system.cpu0.rename.RenamedOperands          999485027                       # Number of destination operands rename has renamed
system.cpu0.rename.RunCycles               1039533042                       # Number of cycles rename is running
system.cpu0.rename.SQFullEvents              23864842                       # Number of times rename has blocked due to SQ full
system.cpu0.rename.SquashCycles              18209661                       # Number of cycles rename is squashing
system.cpu0.rename.UnblockCycles             48952565                       # Number of cycles rename is unblocking
system.cpu0.rename.UndoneMaps               154274330                       # Number of HB maps that are undone due to squashing
system.cpu0.rename.fp_rename_lookups               44                       # Number of floating rename lookups
system.cpu0.rename.int_rename_lookups      1859210058                       # Number of integer rename lookups
system.cpu0.rename.serializeStallCycles        161193                       # count of cycles rename stalled for serializing inst
system.cpu0.rename.serializingInsts              5846                       # count of serializing insts renamed
system.cpu0.rename.skidInsts                 30187899                       # count of insts added to the skid buffer
system.cpu0.rename.tempSerializingInsts          5841                       # count of temporary serializing insts renamed
system.cpu0.rob.rob_reads                  3785870280                       # The number of ROB reads
system.cpu0.rob.rob_writes                 3017190011                       # The number of ROB writes
system.cpu0.timesIdled                       22041878                       # Number of times that the entire CPU went into an idle state and unscheduled itself
system.cpu0.workload.numSyscalls                 1862                       # Number of system calls
system.cpu1.branchPred.BTBCorrect                   0                       # Number of correct BTB predictions (this stat may not work properly.
system.cpu1.branchPred.BTBHitPct            90.516515                       # BTB Hit Percentage
system.cpu1.branchPred.BTBHits               20496050                       # Number of BTB hits
system.cpu1.branchPred.BTBLookups            22643437                       # Number of BTB lookups
system.cpu1.branchPred.RASInCorrect                 0                       # Number of incorrect RAS predictions.
system.cpu1.branchPred.condIncorrect          2771216                       # Number of conditional branches incorrect
system.cpu1.branchPred.condPredicted         30161378                       # Number of conditional branches predicted
system.cpu1.branchPred.indirectHits           1073520                       # Number of indirect target hits.
system.cpu1.branchPred.indirectLookups        1090773                       # Number of indirect predictor lookups.
system.cpu1.branchPred.indirectMisses           17253                       # Number of indirect misses.
system.cpu1.branchPred.lookups               34732848                       # Number of BP lookups
system.cpu1.branchPred.usedRAS                      0                       # Number of times the RAS was used to get a target.
system.cpu1.branchPredindirectMispredicted        48158                       # Number of mispredicted indirect branches.
system.cpu1.commit.amos                       2099999                       # Number of atomic instructions committed
system.cpu1.commit.branchMispredicts          1972546                       # The number of times a branch was mispredicted
system.cpu1.commit.branches                  28123635                       # Number of branches committed
system.cpu1.commit.bw_lim_events              3546648                       # number cycles where commit BW limit reached
system.cpu1.commit.commitNonSpecStalls        6300662                       # The number of times commit has been forced to stall to communicate backwards
system.cpu1.commit.commitSquashedInsts       15254272                       # The number of squashed insts skipped by commit
system.cpu1.commit.committedInsts           120088441                       # Number of instructions committed
system.cpu1.commit.committedOps             122188615                       # Number of ops (including micro ops) committed
system.cpu1.commit.committed_per_cycle::samples    465845791                       # Number of insts commited each cycle
system.cpu1.commit.committed_per_cycle::mean     0.262294                       # Number of insts commited each cycle
system.cpu1.commit.committed_per_cycle::stdev     1.010318                       # Number of insts commited each cycle
system.cpu1.commit.committed_per_cycle::underflows            0      0.00%      0.00% # Number of insts commited each cycle
system.cpu1.commit.committed_per_cycle::0    414757727     89.03%     89.03% # Number of insts commited each cycle
system.cpu1.commit.committed_per_cycle::1     25749925      5.53%     94.56% # Number of insts commited each cycle
system.cpu1.commit.committed_per_cycle::2      9391177      2.02%     96.58% # Number of insts commited each cycle
system.cpu1.commit.committed_per_cycle::3      7078737      1.52%     98.10% # Number of insts commited each cycle
system.cpu1.commit.committed_per_cycle::4      1760262      0.38%     98.47% # Number of insts commited each cycle
system.cpu1.commit.committed_per_cycle::5       941862      0.20%     98.68% # Number of insts commited each cycle
system.cpu1.commit.committed_per_cycle::6      2039588      0.44%     99.11% # Number of insts commited each cycle
system.cpu1.commit.committed_per_cycle::7       579865      0.12%     99.24% # Number of insts commited each cycle
system.cpu1.commit.committed_per_cycle::8      3546648      0.76%    100.00% # Number of insts commited each cycle
system.cpu1.commit.committed_per_cycle::overflows            0      0.00%    100.00% # Number of insts commited each cycle
system.cpu1.commit.committed_per_cycle::min_value            0                       # Number of insts commited each cycle
system.cpu1.commit.committed_per_cycle::max_value            8                       # Number of insts commited each cycle
system.cpu1.commit.committed_per_cycle::total    465845791                       # Number of insts commited each cycle
system.cpu1.commit.fp_insts                        12                       # Number of committed floating point instructions.
system.cpu1.commit.function_calls             1798625                       # Number of function calls committed.
system.cpu1.commit.int_insts                116625270                       # Number of committed integer instructions.
system.cpu1.commit.loads                     30179334                       # Number of loads committed
system.cpu1.commit.membars                    4200114                       # Number of memory barriers committed
system.cpu1.commit.op_class_0::No_OpClass      4200114      3.44%      3.44% # Class of committed instruction
system.cpu1.commit.op_class_0::IntAlu        76683570     62.76%     66.20% # Class of committed instruction
system.cpu1.commit.op_class_0::IntMult             44      0.00%     66.20% # Class of committed instruction
system.cpu1.commit.op_class_0::IntDiv              88      0.00%     66.20% # Class of committed instruction
system.cpu1.commit.op_class_0::FloatAdd             0      0.00%     66.20% # Class of committed instruction
system.cpu1.commit.op_class_0::FloatCmp             0      0.00%     66.20% # Class of committed instruction
system.cpu1.commit.op_class_0::FloatCvt             0      0.00%     66.20% # Class of committed instruction
system.cpu1.commit.op_class_0::FloatMult            0      0.00%     66.20% # Class of committed instruction
system.cpu1.commit.op_class_0::FloatMultAcc            0      0.00%     66.20% # Class of committed instruction
system.cpu1.commit.op_class_0::FloatDiv             0      0.00%     66.20% # Class of committed instruction
system.cpu1.commit.op_class_0::FloatMisc            0      0.00%     66.20% # Class of committed instruction
system.cpu1.commit.op_class_0::FloatSqrt            0      0.00%     66.20% # Class of committed instruction
system.cpu1.commit.op_class_0::SimdAdd              0      0.00%     66.20% # Class of committed instruction
system.cpu1.commit.op_class_0::SimdAddAcc            0      0.00%     66.20% # Class of committed instruction
system.cpu1.commit.op_class_0::SimdAlu              0      0.00%     66.20% # Class of committed instruction
system.cpu1.commit.op_class_0::SimdCmp              0      0.00%     66.20% # Class of committed instruction
system.cpu1.commit.op_class_0::SimdCvt              0      0.00%     66.20% # Class of committed instruction
system.cpu1.commit.op_class_0::SimdMisc             0      0.00%     66.20% # Class of committed instruction
system.cpu1.commit.op_class_0::SimdMult             0      0.00%     66.20% # Class of committed instruction
system.cpu1.commit.op_class_0::SimdMultAcc            0      0.00%     66.20% # Class of committed instruction
system.cpu1.commit.op_class_0::SimdShift            0      0.00%     66.20% # Class of committed instruction
system.cpu1.commit.op_class_0::SimdShiftAcc            0      0.00%     66.20% # Class of committed instruction
system.cpu1.commit.op_class_0::SimdDiv              0      0.00%     66.20% # Class of committed instruction
system.cpu1.commit.op_class_0::SimdSqrt             0      0.00%     66.20% # Class of committed instruction
system.cpu1.commit.op_class_0::SimdFloatAdd            0      0.00%     66.20% # Class of committed instruction
system.cpu1.commit.op_class_0::SimdFloatAlu            0      0.00%     66.20% # Class of committed instruction
system.cpu1.commit.op_class_0::SimdFloatCmp            0      0.00%     66.20% # Class of committed instruction
system.cpu1.commit.op_class_0::SimdFloatCvt            0      0.00%     66.20% # Class of committed instruction
system.cpu1.commit.op_class_0::SimdFloatDiv            0      0.00%     66.20% # Class of committed instruction
system.cpu1.commit.op_class_0::SimdFloatMisc            0      0.00%     66.20% # Class of committed instruction
system.cpu1.commit.op_class_0::SimdFloatMult            0      0.00%     66.20% # Class of committed instruction
system.cpu1.commit.op_class_0::SimdFloatMultAcc            0      0.00%     66.20% # Class of committed instruction
system.cpu1.commit.op_class_0::SimdFloatSqrt            0      0.00%     66.20% # Class of committed instruction
system.cpu1.commit.op_class_0::SimdReduceAdd            0      0.00%     66.20% # Class of committed instruction
system.cpu1.commit.op_class_0::SimdReduceAlu            0      0.00%     66.20% # Class of committed instruction
system.cpu1.commit.op_class_0::SimdReduceCmp            0      0.00%     66.20% # Class of committed instruction
system.cpu1.commit.op_class_0::SimdFloatReduceAdd            0      0.00%     66.20% # Class of committed instruction
system.cpu1.commit.op_class_0::SimdFloatReduceCmp            0      0.00%     66.20% # Class of committed instruction
system.cpu1.commit.op_class_0::SimdAes              0      0.00%     66.20% # Class of committed instruction
system.cpu1.commit.op_class_0::SimdAesMix            0      0.00%     66.20% # Class of committed instruction
system.cpu1.commit.op_class_0::SimdSha1Hash            0      0.00%     66.20% # Class of committed instruction
system.cpu1.commit.op_class_0::SimdSha1Hash2            0      0.00%     66.20% # Class of committed instruction
system.cpu1.commit.op_class_0::SimdSha256Hash            0      0.00%     66.20% # Class of committed instruction
system.cpu1.commit.op_class_0::SimdSha256Hash2            0      0.00%     66.20% # Class of committed instruction
system.cpu1.commit.op_class_0::SimdShaSigma2            0      0.00%     66.20% # Class of committed instruction
system.cpu1.commit.op_class_0::SimdShaSigma3            0      0.00%     66.20% # Class of committed instruction
system.cpu1.commit.op_class_0::SimdPredAlu            0      0.00%     66.20% # Class of committed instruction
system.cpu1.commit.op_class_0::MemRead       32279333     26.42%     92.61% # Class of committed instruction
system.cpu1.commit.op_class_0::MemWrite       9025454      7.39%    100.00% # Class of committed instruction
system.cpu1.commit.op_class_0::FloatMemRead            0      0.00%    100.00% # Class of committed instruction
system.cpu1.commit.op_class_0::FloatMemWrite           12      0.00%    100.00% # Class of committed instruction
system.cpu1.commit.op_class_0::IprAccess            0      0.00%    100.00% # Class of committed instruction
system.cpu1.commit.op_class_0::InstPrefetch            0      0.00%    100.00% # Class of committed instruction
system.cpu1.commit.op_class_0::total        122188615                       # Class of committed instruction
system.cpu1.commit.refs                      41304799                       # Number of memory references committed
system.cpu1.commit.swp_count                        0                       # Number of s/w prefetches committed
system.cpu1.commit.vec_insts                        0                       # Number of committed Vector instructions.
system.cpu1.committedInsts                  120088441                       # Number of Instructions Simulated
system.cpu1.committedOps                    122188615                       # Number of Ops (including micro ops) Simulated
system.cpu1.cpi                              3.912690                       # CPI: Cycles Per Instruction
system.cpu1.cpi_total                        3.912690                       # CPI: Total CPI of All Threads
system.cpu1.decode.BlockedCycles            367057406                       # Number of cycles decode is blocked
system.cpu1.decode.BranchMispred               845137                       # Number of times decode detected a branch misprediction
system.cpu1.decode.BranchResolved            19514208                       # Number of times decode resolved a branch
system.cpu1.decode.DecodedInsts             144064869                       # Number of instructions handled by decode
system.cpu1.decode.IdleCycles                27229595                       # Number of cycles decode is idle
system.cpu1.decode.RunCycles                 68032234                       # Number of cycles decode is running
system.cpu1.decode.SquashCycles               1973982                       # Number of cycles decode is squashing
system.cpu1.decode.SquashedInsts              2094923                       # Number of squashed instructions handled by decode
system.cpu1.decode.UnblockCycles              4807670                       # Number of cycles decode is unblocking
system.cpu1.dtb.accesses                            0                       # DTB accesses
system.cpu1.dtb.hits                                0                       # DTB hits
system.cpu1.dtb.misses                              0                       # DTB misses
system.cpu1.dtb.read_accesses                       0                       # DTB read accesses
system.cpu1.dtb.read_hits                           0                       # DTB read hits
system.cpu1.dtb.read_misses                         0                       # DTB read misses
system.cpu1.dtb.write_accesses                      0                       # DTB write accesses
system.cpu1.dtb.write_hits                          0                       # DTB write hits
system.cpu1.dtb.write_misses                        0                       # DTB write misses
system.cpu1.fetch.Branches                   34732848                       # Number of branches that fetch encountered
system.cpu1.fetch.CacheLines                 25078011                       # Number of cache lines fetched
system.cpu1.fetch.Cycles                    438559961                       # Number of cycles fetch has run and was not squashing or blocked
system.cpu1.fetch.IcacheSquashes               477119                       # Number of outstanding Icache misses that were squashed
system.cpu1.fetch.Insts                     149492333                       # Number of instructions fetch has processed
system.cpu1.fetch.MiscStallCycles                   4                       # Number of cycles fetch has spent waiting on interrupts, or bad addresses, or out of MSHRs
system.cpu1.fetch.PendingTrapStallCycles           14                       # Number of stall cycles due to pending traps
system.cpu1.fetch.SquashCycles                5545308                       # Number of cycles fetch has spent squashing
system.cpu1.fetch.branchRate                 0.073920                       # Number of branch fetches per cycle
system.cpu1.fetch.icacheStallCycles          27768254                       # Number of cycles fetch is stalled on an Icache miss
system.cpu1.fetch.predictedBranches          21569570                       # Number of branches that fetch has predicted taken
system.cpu1.fetch.rate                       0.318158                       # Number of inst fetches per cycle
system.cpu1.fetch.rateDist::samples         469100887                       # Number of instructions fetched each cycle (Total)
system.cpu1.fetch.rateDist::mean             0.323157                       # Number of instructions fetched each cycle (Total)
system.cpu1.fetch.rateDist::stdev            0.741141                       # Number of instructions fetched each cycle (Total)
system.cpu1.fetch.rateDist::underflows              0      0.00%      0.00% # Number of instructions fetched each cycle (Total)
system.cpu1.fetch.rateDist::0               371566958     79.21%     79.21% # Number of instructions fetched each cycle (Total)
system.cpu1.fetch.rateDist::1                61989732     13.21%     92.42% # Number of instructions fetched each cycle (Total)
system.cpu1.fetch.rateDist::2                20618853      4.40%     96.82% # Number of instructions fetched each cycle (Total)
system.cpu1.fetch.rateDist::3                12391133      2.64%     99.46% # Number of instructions fetched each cycle (Total)
system.cpu1.fetch.rateDist::4                 1792132      0.38%     99.84% # Number of instructions fetched each cycle (Total)
system.cpu1.fetch.rateDist::5                  429081      0.09%     99.93% # Number of instructions fetched each cycle (Total)
system.cpu1.fetch.rateDist::6                  312771      0.07%    100.00% # Number of instructions fetched each cycle (Total)
system.cpu1.fetch.rateDist::7                      12      0.00%    100.00% # Number of instructions fetched each cycle (Total)
system.cpu1.fetch.rateDist::8                     215      0.00%    100.00% # Number of instructions fetched each cycle (Total)
system.cpu1.fetch.rateDist::overflows               0      0.00%    100.00% # Number of instructions fetched each cycle (Total)
system.cpu1.fetch.rateDist::min_value               0                       # Number of instructions fetched each cycle (Total)
system.cpu1.fetch.rateDist::max_value               8                       # Number of instructions fetched each cycle (Total)
system.cpu1.fetch.rateDist::total           469100887                       # Number of instructions fetched each cycle (Total)
system.cpu1.fp_regfile_reads                       12                       # number of floating regfile reads
system.cpu1.idleCycles                         768004                       # Total number of cycles that the CPU has spent unscheduled due to idling
system.cpu1.iew.branchMispredicts             2065503                       # Number of branch mispredicts detected at execute
system.cpu1.iew.exec_branches                30272657                       # Number of branches executed
system.cpu1.iew.exec_nop                            0                       # number of nop insts executed
system.cpu1.iew.exec_rate                    0.282073                       # Inst execution rate
system.cpu1.iew.exec_refs                    45332316                       # number of memory reference insts executed
system.cpu1.iew.exec_stores                  11532396                       # Number of stores executed
system.cpu1.iew.exec_swp                            0                       # number of swp insts executed
system.cpu1.iew.iewBlockCycles              304737893                       # Number of cycles IEW is blocking
system.cpu1.iew.iewDispLoadInsts             34428507                       # Number of dispatched load instructions
system.cpu1.iew.iewDispNonSpecInsts           2100705                       # Number of dispatched non-speculative instructions
system.cpu1.iew.iewDispSquashedInsts          2050922                       # Number of squashed instructions skipped by dispatch
system.cpu1.iew.iewDispStoreInsts            11974286                       # Number of dispatched store instructions
system.cpu1.iew.iewDispatchedInsts          137402682                       # Number of instructions dispatched to IQ
system.cpu1.iew.iewExecLoadInsts             33799920                       # Number of load instructions executed
system.cpu1.iew.iewExecSquashedInsts          1984609                       # Number of squashed instructions skipped in execute
system.cpu1.iew.iewExecutedInsts            132537297                       # Number of executed instructions
system.cpu1.iew.iewIQFullEvents               1944525                       # Number of times the IQ has become full, causing a stall
system.cpu1.iew.iewIdleCycles                       0                       # Number of cycles IEW is idle
system.cpu1.iew.iewLSQFullEvents              7035670                       # Number of times the LSQ has become full, causing a stall
system.cpu1.iew.iewSquashCycles               1973982                       # Number of cycles IEW is squashing
system.cpu1.iew.iewUnblockCycles             11335007                       # Number of cycles IEW is unblocking
system.cpu1.iew.lsq.thread0.blockedLoads            0                       # Number of blocked loads due to partial load-store forwarding
system.cpu1.iew.lsq.thread0.cacheBlocked        85830                       # Number of times an access to memory failed due to the cache being blocked
system.cpu1.iew.lsq.thread0.forwLoads         1087278                       # Number of loads that had data forwarded from stores
system.cpu1.iew.lsq.thread0.ignoredResponses        46990                       # Number of memory responses ignored because the instruction is squashed
system.cpu1.iew.lsq.thread0.invAddrLoads            0                       # Number of loads ignored due to an invalid address
system.cpu1.iew.lsq.thread0.invAddrSwpfs            0                       # Number of software prefetches ignored due to an invalid address
system.cpu1.iew.lsq.thread0.memOrderViolation         1880                       # Number of memory ordering violations
system.cpu1.iew.lsq.thread0.rescheduledLoads        12427                       # Number of loads that were rescheduled
system.cpu1.iew.lsq.thread0.squashedLoads      4249173                       # Number of loads squashed
system.cpu1.iew.lsq.thread0.squashedStores       848821                       # Number of stores squashed
system.cpu1.iew.memOrderViolationEvents          1880                       # Number of memory order violations
system.cpu1.iew.predictedNotTakenIncorrect       536451                       # Number of branches that were predicted not taken incorrectly
system.cpu1.iew.predictedTakenIncorrect       1529052                       # Number of branches that were predicted taken incorrectly
system.cpu1.iew.wb_consumers                 75845491                       # num instructions consuming a value
system.cpu1.iew.wb_count                    131107768                       # cumulative count of insts written-back
system.cpu1.iew.wb_fanout                    0.838626                       # average fanout of values written-back
system.cpu1.iew.wb_producers                 63606003                       # num instructions producing a value
system.cpu1.iew.wb_rate                      0.279031                       # insts written-back per cycle
system.cpu1.iew.wb_sent                     131174708                       # cumulative count of insts sent to commit
system.cpu1.int_regfile_reads               168132649                       # number of integer regfile reads
system.cpu1.int_regfile_writes               88287309                       # number of integer regfile writes
system.cpu1.ipc                              0.255579                       # IPC: Instructions Per Cycle
system.cpu1.ipc_total                        0.255579                       # IPC: Total IPC of All Threads
system.cpu1.iq.FU_type_0::No_OpClass          4200218      3.12%      3.12% # Type of FU issued
system.cpu1.iq.FU_type_0::IntAlu             84411448     62.75%     65.87% # Type of FU issued
system.cpu1.iq.FU_type_0::IntMult                  48      0.00%     65.87% # Type of FU issued
system.cpu1.iq.FU_type_0::IntDiv                   90      0.00%     65.87% # Type of FU issued
system.cpu1.iq.FU_type_0::FloatAdd                  0      0.00%     65.87% # Type of FU issued
system.cpu1.iq.FU_type_0::FloatCmp                  0      0.00%     65.87% # Type of FU issued
system.cpu1.iq.FU_type_0::FloatCvt                  0      0.00%     65.87% # Type of FU issued
system.cpu1.iq.FU_type_0::FloatMult                 0      0.00%     65.87% # Type of FU issued
system.cpu1.iq.FU_type_0::FloatMultAcc              0      0.00%     65.87% # Type of FU issued
system.cpu1.iq.FU_type_0::FloatDiv                  0      0.00%     65.87% # Type of FU issued
system.cpu1.iq.FU_type_0::FloatMisc                 0      0.00%     65.87% # Type of FU issued
system.cpu1.iq.FU_type_0::FloatSqrt                 0      0.00%     65.87% # Type of FU issued
system.cpu1.iq.FU_type_0::SimdAdd                   0      0.00%     65.87% # Type of FU issued
system.cpu1.iq.FU_type_0::SimdAddAcc                0      0.00%     65.87% # Type of FU issued
system.cpu1.iq.FU_type_0::SimdAlu                   0      0.00%     65.87% # Type of FU issued
system.cpu1.iq.FU_type_0::SimdCmp                   0      0.00%     65.87% # Type of FU issued
system.cpu1.iq.FU_type_0::SimdCvt                   0      0.00%     65.87% # Type of FU issued
system.cpu1.iq.FU_type_0::SimdMisc                  0      0.00%     65.87% # Type of FU issued
system.cpu1.iq.FU_type_0::SimdMult                  0      0.00%     65.87% # Type of FU issued
system.cpu1.iq.FU_type_0::SimdMultAcc               0      0.00%     65.87% # Type of FU issued
system.cpu1.iq.FU_type_0::SimdShift                 0      0.00%     65.87% # Type of FU issued
system.cpu1.iq.FU_type_0::SimdShiftAcc              0      0.00%     65.87% # Type of FU issued
system.cpu1.iq.FU_type_0::SimdDiv                   0      0.00%     65.87% # Type of FU issued
system.cpu1.iq.FU_type_0::SimdSqrt                  0      0.00%     65.87% # Type of FU issued
system.cpu1.iq.FU_type_0::SimdFloatAdd              0      0.00%     65.87% # Type of FU issued
system.cpu1.iq.FU_type_0::SimdFloatAlu              0      0.00%     65.87% # Type of FU issued
system.cpu1.iq.FU_type_0::SimdFloatCmp              0      0.00%     65.87% # Type of FU issued
system.cpu1.iq.FU_type_0::SimdFloatCvt              0      0.00%     65.87% # Type of FU issued
system.cpu1.iq.FU_type_0::SimdFloatDiv              0      0.00%     65.87% # Type of FU issued
system.cpu1.iq.FU_type_0::SimdFloatMisc             0      0.00%     65.87% # Type of FU issued
system.cpu1.iq.FU_type_0::SimdFloatMult             0      0.00%     65.87% # Type of FU issued
system.cpu1.iq.FU_type_0::SimdFloatMultAcc            0      0.00%     65.87% # Type of FU issued
system.cpu1.iq.FU_type_0::SimdFloatSqrt             0      0.00%     65.87% # Type of FU issued
system.cpu1.iq.FU_type_0::SimdReduceAdd             0      0.00%     65.87% # Type of FU issued
system.cpu1.iq.FU_type_0::SimdReduceAlu             0      0.00%     65.87% # Type of FU issued
system.cpu1.iq.FU_type_0::SimdReduceCmp             0      0.00%     65.87% # Type of FU issued
system.cpu1.iq.FU_type_0::SimdFloatReduceAdd            0      0.00%     65.87% # Type of FU issued
system.cpu1.iq.FU_type_0::SimdFloatReduceCmp            0      0.00%     65.87% # Type of FU issued
system.cpu1.iq.FU_type_0::SimdAes                   0      0.00%     65.87% # Type of FU issued
system.cpu1.iq.FU_type_0::SimdAesMix                0      0.00%     65.87% # Type of FU issued
system.cpu1.iq.FU_type_0::SimdSha1Hash              0      0.00%     65.87% # Type of FU issued
system.cpu1.iq.FU_type_0::SimdSha1Hash2             0      0.00%     65.87% # Type of FU issued
system.cpu1.iq.FU_type_0::SimdSha256Hash            0      0.00%     65.87% # Type of FU issued
system.cpu1.iq.FU_type_0::SimdSha256Hash2            0      0.00%     65.87% # Type of FU issued
system.cpu1.iq.FU_type_0::SimdShaSigma2             0      0.00%     65.87% # Type of FU issued
system.cpu1.iq.FU_type_0::SimdShaSigma3             0      0.00%     65.87% # Type of FU issued
system.cpu1.iq.FU_type_0::SimdPredAlu               0      0.00%     65.87% # Type of FU issued
system.cpu1.iq.FU_type_0::MemRead            36391725     27.05%     92.92% # Type of FU issued
system.cpu1.iq.FU_type_0::MemWrite            9518365      7.08%    100.00% # Type of FU issued
system.cpu1.iq.FU_type_0::FloatMemRead              0      0.00%    100.00% # Type of FU issued
system.cpu1.iq.FU_type_0::FloatMemWrite            12      0.00%    100.00% # Type of FU issued
system.cpu1.iq.FU_type_0::IprAccess                 0      0.00%    100.00% # Type of FU issued
system.cpu1.iq.FU_type_0::InstPrefetch              0      0.00%    100.00% # Type of FU issued
system.cpu1.iq.FU_type_0::total             134521906                       # Type of FU issued
system.cpu1.iq.fp_alu_accesses                     16                       # Number of floating point alu accesses
system.cpu1.iq.fp_inst_queue_reads                 28                       # Number of floating instruction queue reads
system.cpu1.iq.fp_inst_queue_wakeup_accesses           12                       # Number of floating instruction queue wakeup accesses
system.cpu1.iq.fp_inst_queue_writes                12                       # Number of floating instruction queue writes
system.cpu1.iq.fu_busy_cnt                    2688028                       # FU busy when requested
system.cpu1.iq.fu_busy_rate                  0.019982                       # FU busy rate (busy events/executed inst)
system.cpu1.iq.fu_full::No_OpClass                  0      0.00%      0.00% # attempts to use FU when none available
system.cpu1.iq.fu_full::IntAlu                 441641     16.43%     16.43% # attempts to use FU when none available
system.cpu1.iq.fu_full::IntMult                     0      0.00%     16.43% # attempts to use FU when none available
system.cpu1.iq.fu_full::IntDiv                      0      0.00%     16.43% # attempts to use FU when none available
system.cpu1.iq.fu_full::FloatAdd                    0      0.00%     16.43% # attempts to use FU when none available
system.cpu1.iq.fu_full::FloatCmp                    0      0.00%     16.43% # attempts to use FU when none available
system.cpu1.iq.fu_full::FloatCvt                    0      0.00%     16.43% # attempts to use FU when none available
system.cpu1.iq.fu_full::FloatMult                   0      0.00%     16.43% # attempts to use FU when none available
system.cpu1.iq.fu_full::FloatMultAcc                0      0.00%     16.43% # attempts to use FU when none available
system.cpu1.iq.fu_full::FloatDiv                    0      0.00%     16.43% # attempts to use FU when none available
system.cpu1.iq.fu_full::FloatMisc                   0      0.00%     16.43% # attempts to use FU when none available
system.cpu1.iq.fu_full::FloatSqrt                   0      0.00%     16.43% # attempts to use FU when none available
system.cpu1.iq.fu_full::SimdAdd                     0      0.00%     16.43% # attempts to use FU when none available
system.cpu1.iq.fu_full::SimdAddAcc                  0      0.00%     16.43% # attempts to use FU when none available
system.cpu1.iq.fu_full::SimdAlu                     0      0.00%     16.43% # attempts to use FU when none available
system.cpu1.iq.fu_full::SimdCmp                     0      0.00%     16.43% # attempts to use FU when none available
system.cpu1.iq.fu_full::SimdCvt                     0      0.00%     16.43% # attempts to use FU when none available
system.cpu1.iq.fu_full::SimdMisc                    0      0.00%     16.43% # attempts to use FU when none available
system.cpu1.iq.fu_full::SimdMult                    0      0.00%     16.43% # attempts to use FU when none available
system.cpu1.iq.fu_full::SimdMultAcc                 0      0.00%     16.43% # attempts to use FU when none available
system.cpu1.iq.fu_full::SimdShift                   0      0.00%     16.43% # attempts to use FU when none available
system.cpu1.iq.fu_full::SimdShiftAcc                0      0.00%     16.43% # attempts to use FU when none available
system.cpu1.iq.fu_full::SimdDiv                     0      0.00%     16.43% # attempts to use FU when none available
system.cpu1.iq.fu_full::SimdSqrt                    0      0.00%     16.43% # attempts to use FU when none available
system.cpu1.iq.fu_full::SimdFloatAdd                0      0.00%     16.43% # attempts to use FU when none available
system.cpu1.iq.fu_full::SimdFloatAlu                0      0.00%     16.43% # attempts to use FU when none available
system.cpu1.iq.fu_full::SimdFloatCmp                0      0.00%     16.43% # attempts to use FU when none available
system.cpu1.iq.fu_full::SimdFloatCvt                0      0.00%     16.43% # attempts to use FU when none available
system.cpu1.iq.fu_full::SimdFloatDiv                0      0.00%     16.43% # attempts to use FU when none available
system.cpu1.iq.fu_full::SimdFloatMisc               0      0.00%     16.43% # attempts to use FU when none available
system.cpu1.iq.fu_full::SimdFloatMult               0      0.00%     16.43% # attempts to use FU when none available
system.cpu1.iq.fu_full::SimdFloatMultAcc            0      0.00%     16.43% # attempts to use FU when none available
system.cpu1.iq.fu_full::SimdFloatSqrt               0      0.00%     16.43% # attempts to use FU when none available
system.cpu1.iq.fu_full::SimdReduceAdd               0      0.00%     16.43% # attempts to use FU when none available
system.cpu1.iq.fu_full::SimdReduceAlu               0      0.00%     16.43% # attempts to use FU when none available
system.cpu1.iq.fu_full::SimdReduceCmp               0      0.00%     16.43% # attempts to use FU when none available
system.cpu1.iq.fu_full::SimdFloatReduceAdd            0      0.00%     16.43% # attempts to use FU when none available
system.cpu1.iq.fu_full::SimdFloatReduceCmp            0      0.00%     16.43% # attempts to use FU when none available
system.cpu1.iq.fu_full::SimdAes                     0      0.00%     16.43% # attempts to use FU when none available
system.cpu1.iq.fu_full::SimdAesMix                  0      0.00%     16.43% # attempts to use FU when none available
system.cpu1.iq.fu_full::SimdSha1Hash                0      0.00%     16.43% # attempts to use FU when none available
system.cpu1.iq.fu_full::SimdSha1Hash2               0      0.00%     16.43% # attempts to use FU when none available
system.cpu1.iq.fu_full::SimdSha256Hash              0      0.00%     16.43% # attempts to use FU when none available
system.cpu1.iq.fu_full::SimdSha256Hash2             0      0.00%     16.43% # attempts to use FU when none available
system.cpu1.iq.fu_full::SimdShaSigma2               0      0.00%     16.43% # attempts to use FU when none available
system.cpu1.iq.fu_full::SimdShaSigma3               0      0.00%     16.43% # attempts to use FU when none available
system.cpu1.iq.fu_full::SimdPredAlu                 0      0.00%     16.43% # attempts to use FU when none available
system.cpu1.iq.fu_full::MemRead               1811259     67.38%     83.81% # attempts to use FU when none available
[...]
system.cpu1.dcache.WriteReq_hits::total       2141811                       # number of WriteReq hits
system.cpu1.dcache.WriteReq_misses::.cpu1.data      2046561                       # number of WriteReq misses
system.cpu1.dcache.WriteReq_misses::total      2046561                       # number of WriteReq misses
system.cpu1.dcache.WriteReq_miss_latency::.cpu1.data 123257815371                       # number of WriteReq miss cycles
system.cpu1.dcache.WriteReq_miss_latency::total 123257815371                       # number of WriteReq miss cycles
system.cpu1.dcache.WriteReq_accesses::.cpu1.data      4188372                       # number of WriteReq accesses(hits+misses)
system.cpu1.dcache.WriteReq_accesses::total      4188372                       # number of WriteReq accesses(hits+misses)
system.cpu1.dcache.WriteReq_miss_rate::.cpu1.data     0.488629                       # miss rate for WriteReq accesses
system.cpu1.dcache.WriteReq_miss_rate::total     0.488629                       # miss rate for WriteReq accesses
system.cpu1.dcache.WriteReq_avg_miss_latency::.cpu1.data 60226.797721                       # average WriteReq miss latency
system.cpu1.dcache.WriteReq_avg_miss_latency::total 60226.797721                       # average WriteReq miss latency
system.cpu1.dcache.WriteReq_mshr_hits::.cpu1.data      1825466                       # number of WriteReq MSHR hits
system.cpu1.dcache.WriteReq_mshr_hits::total      1825466                       # number of WriteReq MSHR hits
system.cpu1.dcache.WriteReq_mshr_misses::.cpu1.data       221095                       # number of WriteReq MSHR misses
system.cpu1.dcache.WriteReq_mshr_misses::total       221095                       # number of WriteReq MSHR misses
system.cpu1.dcache.WriteReq_mshr_miss_latency::.cpu1.data  15224856445                       # number of WriteReq MSHR miss cycles
system.cpu1.dcache.WriteReq_mshr_miss_latency::total  15224856445                       # number of WriteReq MSHR miss cycles
system.cpu1.dcache.WriteReq_mshr_miss_rate::.cpu1.data     0.052788                       # mshr miss rate for WriteReq accesses
system.cpu1.dcache.WriteReq_mshr_miss_rate::total     0.052788                       # mshr miss rate for WriteReq accesses
system.cpu1.dcache.WriteReq_avg_mshr_miss_latency::.cpu1.data 68861.152197                       # average WriteReq mshr miss latency
system.cpu1.dcache.WriteReq_avg_mshr_miss_latency::total 68861.152197                       # average WriteReq mshr miss latency
system.cpu1.dcache.LoadLockedReq_hits::.cpu1.data        34987                       # number of LoadLockedReq hits
system.cpu1.dcache.LoadLockedReq_hits::total        34987                       # number of LoadLockedReq hits
system.cpu1.dcache.LoadLockedReq_misses::.cpu1.data          418                       # number of LoadLockedReq misses
system.cpu1.dcache.LoadLockedReq_misses::total          418                       # number of LoadLockedReq misses
system.cpu1.dcache.LoadLockedReq_miss_latency::.cpu1.data     29165500                       # number of LoadLockedReq miss cycles
system.cpu1.dcache.LoadLockedReq_miss_latency::total     29165500                       # number of LoadLockedReq miss cycles
system.cpu1.dcache.LoadLockedReq_accesses::.cpu1.data        35405                       # number of LoadLockedReq accesses(hits+misses)
system.cpu1.dcache.LoadLockedReq_accesses::total        35405                       # number of LoadLockedReq accesses(hits+misses)
system.cpu1.dcache.LoadLockedReq_miss_rate::.cpu1.data     0.011806                       # miss rate for LoadLockedReq accesses
system.cpu1.dcache.LoadLockedReq_miss_rate::total     0.011806                       # miss rate for LoadLockedReq accesses
system.cpu1.dcache.LoadLockedReq_avg_miss_latency::.cpu1.data 69773.923445                       # average LoadLockedReq miss latency
system.cpu1.dcache.LoadLockedReq_avg_miss_latency::total 69773.923445                       # average LoadLockedReq miss latency
system.cpu1.dcache.LoadLockedReq_mshr_hits::.cpu1.data          188                       # number of LoadLockedReq MSHR hits
system.cpu1.dcache.LoadLockedReq_mshr_hits::total          188                       # number of LoadLockedReq MSHR hits
system.cpu1.dcache.LoadLockedReq_mshr_misses::.cpu1.data          230                       # number of LoadLockedReq MSHR misses
system.cpu1.dcache.LoadLockedReq_mshr_misses::total          230                       # number of LoadLockedReq MSHR misses
system.cpu1.dcache.LoadLockedReq_mshr_miss_latency::.cpu1.data     14935000                       # number of LoadLockedReq MSHR miss cycles
system.cpu1.dcache.LoadLockedReq_mshr_miss_latency::total     14935000                       # number of LoadLockedReq MSHR miss cycles
system.cpu1.dcache.LoadLockedReq_mshr_miss_rate::.cpu1.data     0.006496                       # mshr miss rate for LoadLockedReq accesses
system.cpu1.dcache.LoadLockedReq_mshr_miss_rate::total     0.006496                       # mshr miss rate for LoadLockedReq accesses
system.cpu1.dcache.LoadLockedReq_avg_mshr_miss_latency::.cpu1.data 64934.782609                       # average LoadLockedReq mshr miss latency
system.cpu1.dcache.LoadLockedReq_avg_mshr_miss_latency::total 64934.782609                       # average LoadLockedReq mshr miss latency
system.cpu1.dcache.StoreCondReq_hits::.cpu1.data        34592                       # number of StoreCondReq hits
system.cpu1.dcache.StoreCondReq_hits::total        34592                       # number of StoreCondReq hits
system.cpu1.dcache.StoreCondReq_misses::.cpu1.data          659                       # number of StoreCondReq misses
system.cpu1.dcache.StoreCondReq_misses::total          659                       # number of StoreCondReq misses
system.cpu1.dcache.StoreCondReq_miss_latency::.cpu1.data      5876500                       # number of StoreCondReq miss cycles
system.cpu1.dcache.StoreCondReq_miss_latency::total      5876500                       # number of StoreCondReq miss cycles
system.cpu1.dcache.StoreCondReq_accesses::.cpu1.data        35251                       # number of StoreCondReq accesses(hits+misses)
system.cpu1.dcache.StoreCondReq_accesses::total        35251                       # number of StoreCondReq accesses(hits+misses)
system.cpu1.dcache.StoreCondReq_miss_rate::.cpu1.data     0.018695                       # miss rate for StoreCondReq accesses
system.cpu1.dcache.StoreCondReq_miss_rate::total     0.018695                       # miss rate for StoreCondReq accesses
system.cpu1.dcache.StoreCondReq_avg_miss_latency::.cpu1.data  8917.298938                       # average StoreCondReq miss latency
system.cpu1.dcache.StoreCondReq_avg_miss_latency::total  8917.298938                       # average StoreCondReq miss latency
system.cpu1.dcache.StoreCondReq_mshr_misses::.cpu1.data          658                       # number of StoreCondReq MSHR misses
system.cpu1.dcache.StoreCondReq_mshr_misses::total          658                       # number of StoreCondReq MSHR misses
system.cpu1.dcache.StoreCondReq_mshr_miss_latency::.cpu1.data      5225500                       # number of StoreCondReq MSHR miss cycles
system.cpu1.dcache.StoreCondReq_mshr_miss_latency::total      5225500                       # number of StoreCondReq MSHR miss cycles
system.cpu1.dcache.StoreCondReq_mshr_miss_rate::.cpu1.data     0.018666                       # mshr miss rate for StoreCondReq accesses
system.cpu1.dcache.StoreCondReq_mshr_miss_rate::total     0.018666                       # mshr miss rate for StoreCondReq accesses
system.cpu1.dcache.StoreCondReq_avg_mshr_miss_latency::.cpu1.data  7941.489362                       # average StoreCondReq mshr miss latency
system.cpu1.dcache.StoreCondReq_avg_mshr_miss_latency::total  7941.489362                       # average StoreCondReq mshr miss latency
system.cpu1.dcache.StoreCondFailReq_miss_latency::.cpu1.data       126500                       # number of StoreCondFailReq miss cycles
system.cpu1.dcache.StoreCondFailReq_miss_latency::total       126500                       # number of StoreCondFailReq miss cycles
system.cpu1.dcache.StoreCondFailReq_avg_miss_latency::.cpu1.data          inf                       # average StoreCondFailReq miss latency
system.cpu1.dcache.StoreCondFailReq_avg_miss_latency::total          inf                       # average StoreCondFailReq miss latency
system.cpu1.dcache.StoreCondFailReq_mshr_miss_latency::.cpu1.data       119500                       # number of StoreCondFailReq MSHR miss cycles
system.cpu1.dcache.StoreCondFailReq_mshr_miss_latency::total       119500                       # number of StoreCondFailReq MSHR miss cycles
system.cpu1.dcache.StoreCondFailReq_avg_mshr_miss_latency::.cpu1.data          inf                       # average StoreCondFailReq mshr miss latency
system.cpu1.dcache.StoreCondFailReq_avg_mshr_miss_latency::total          inf                       # average StoreCondFailReq mshr miss latency
system.cpu1.dcache.SwapReq_hits::.cpu1.data          932                       # number of SwapReq hits
system.cpu1.dcache.SwapReq_hits::total            932                       # number of SwapReq hits
system.cpu1.dcache.SwapReq_misses::.cpu1.data          644                       # number of SwapReq misses
system.cpu1.dcache.SwapReq_misses::total          644                       # number of SwapReq misses
system.cpu1.dcache.SwapReq_miss_latency::.cpu1.data      7246999                       # number of SwapReq miss cycles
system.cpu1.dcache.SwapReq_miss_latency::total      7246999                       # number of SwapReq miss cycles
system.cpu1.dcache.SwapReq_accesses::.cpu1.data         1576                       # number of SwapReq accesses(hits+misses)
system.cpu1.dcache.SwapReq_accesses::total         1576                       # number of SwapReq accesses(hits+misses)
system.cpu1.dcache.SwapReq_miss_rate::.cpu1.data     0.408629                       # miss rate for SwapReq accesses
system.cpu1.dcache.SwapReq_miss_rate::total     0.408629                       # miss rate for SwapReq accesses
system.cpu1.dcache.SwapReq_avg_miss_latency::.cpu1.data 11253.104037                       # average SwapReq miss latency
system.cpu1.dcache.SwapReq_avg_miss_latency::total 11253.104037                       # average SwapReq miss latency
system.cpu1.dcache.SwapReq_mshr_misses::.cpu1.data          644                       # number of SwapReq MSHR misses
system.cpu1.dcache.SwapReq_mshr_misses::total          644                       # number of SwapReq MSHR misses
system.cpu1.dcache.SwapReq_mshr_miss_latency::.cpu1.data      6602999                       # number of SwapReq MSHR miss cycles
system.cpu1.dcache.SwapReq_mshr_miss_latency::total      6602999                       # number of SwapReq MSHR miss cycles
system.cpu1.dcache.SwapReq_mshr_miss_rate::.cpu1.data     0.408629                       # mshr miss rate for SwapReq accesses
system.cpu1.dcache.SwapReq_mshr_miss_rate::total     0.408629                       # mshr miss rate for SwapReq accesses
system.cpu1.dcache.SwapReq_avg_mshr_miss_latency::.cpu1.data 10253.104037                       # average SwapReq mshr miss latency
system.cpu1.dcache.SwapReq_avg_mshr_miss_latency::total 10253.104037                       # average SwapReq mshr miss latency
system.cpu1.dcache.tags.pwrStateResidencyTicks::UNDEFINED  69545072500                       # Cumulative time (in ticks) in various power states
system.cpu1.dcache.tags.tagsinuse           31.749124                       # Cycle average of tags in use
system.cpu1.dcache.tags.total_refs           14601330                       # Total number of references to valid blocks.
system.cpu1.dcache.tags.sampled_refs           994957                       # Sample count of references to valid blocks.
system.cpu1.dcache.tags.avg_refs            14.675338                       # Average number of references to valid blocks.
system.cpu1.dcache.tags.warmup_cycle                0                       # Cycle when the warmup percentage was hit.
system.cpu1.dcache.tags.occ_blocks::.cpu1.data    31.749124                       # Average occupied blocks per requestor
system.cpu1.dcache.tags.occ_percent::.cpu1.data     0.992160                       # Average percentage of cache occupancy
system.cpu1.dcache.tags.occ_percent::total     0.992160                       # Average percentage of cache occupancy
system.cpu1.dcache.tags.occ_task_id_blocks::1024           28                       # Occupied blocks per task id
system.cpu1.dcache.tags.age_task_id_blocks_1024::1            3                       # Occupied blocks per task id
system.cpu1.dcache.tags.age_task_id_blocks_1024::2           25                       # Occupied blocks per task id
system.cpu1.dcache.tags.occ_task_id_percent::1024     0.875000                       # Percentage of cache occupancy per task id
system.cpu1.dcache.tags.tag_accesses         45091588                       # Number of tag accesses
system.cpu1.dcache.tags.data_accesses        45091588                       # Number of data accesses
system.cpu_clk_domain.clock                       500                       # Clock period in ticks
system.tol2bus.pwrStateResidencyTicks::UNDEFINED  69545072500                       # Cumulative time (in ticks) in various power states
system.tol2bus.trans_dist::ReadResp           1650011                       # Transaction distribution
system.tol2bus.trans_dist::WritebackDirty      1860662                       # Transaction distribution
system.tol2bus.trans_dist::WritebackClean      1189516                       # Transaction distribution
system.tol2bus.trans_dist::CleanEvict         4085155                       # Transaction distribution
system.tol2bus.trans_dist::HardPFReq          3464268                       # Transaction distribution
system.tol2bus.trans_dist::HardPFResp               1                       # Transaction distribution
system.tol2bus.trans_dist::UpgradeReq            1937                       # Transaction distribution
system.tol2bus.trans_dist::SCUpgradeReq          1509                       # Transaction distribution
system.tol2bus.trans_dist::UpgradeResp           3446                       # Transaction distribution
system.tol2bus.trans_dist::SCUpgradeFailReq            8                       # Transaction distribution
system.tol2bus.trans_dist::UpgradeFailResp            8                       # Transaction distribution
system.tol2bus.trans_dist::ReadExReq           475791                       # Transaction distribution
system.tol2bus.trans_dist::ReadExResp          475791                       # Transaction distribution
system.tol2bus.trans_dist::ReadCleanReq         86468                       # Transaction distribution
system.tol2bus.trans_dist::ReadSharedReq      1563542                       # Transaction distribution
system.tol2bus.trans_dist::InvalidateReq         1031                       # Transaction distribution
system.tol2bus.trans_dist::InvalidateResp         1031                       # Transaction distribution
system.tol2bus.pkt_count_system.cpu0.icache.mem_side::system.l2.cpu_side       214636                       # Packet count per connected master and slave (bytes)
system.tol2bus.pkt_count_system.cpu0.dcache.mem_side::system.l2.cpu_side      3134838                       # Packet count per connected master and slave (bytes)
system.tol2bus.pkt_count_system.cpu1.icache.mem_side::system.l2.cpu_side        44724                       # Packet count per connected master and slave (bytes)
system.tol2bus.pkt_count_system.cpu1.dcache.mem_side::system.l2.cpu_side      2982444                       # Packet count per connected master and slave (bytes)
system.tol2bus.pkt_count::total               6376642                       # Packet count per connected master and slave (bytes)
system.tol2bus.pkt_size_system.cpu0.icache.mem_side::system.l2.cpu_side      9156864                       # Cumulative packet size per connected master and slave (bytes)
system.tol2bus.pkt_size_system.cpu0.dcache.mem_side::system.l2.cpu_side    133510080                       # Cumulative packet size per connected master and slave (bytes)
system.tol2bus.pkt_size_system.cpu1.icache.mem_side::system.l2.cpu_side      1908224                       # Cumulative packet size per connected master and slave (bytes)
system.tol2bus.pkt_size_system.cpu1.dcache.mem_side::system.l2.cpu_side    127075200                       # Cumulative packet size per connected master and slave (bytes)
system.tol2bus.pkt_size::total              271650368                       # Cumulative packet size per connected master and slave (bytes)
system.tol2bus.snoops                         8483534                       # Total snoops (count)
system.tol2bus.snoopTraffic                  59612992                       # Total snoop traffic (bytes)
system.tol2bus.snoop_fanout::samples         10607153                       # Request fanout histogram
system.tol2bus.snoop_fanout::mean            0.166001                       # Request fanout histogram
system.tol2bus.snoop_fanout::stdev           0.379520                       # Request fanout histogram
system.tol2bus.snoop_fanout::underflows             0      0.00%      0.00% # Request fanout histogram
system.tol2bus.snoop_fanout::0                8875999     83.68%     83.68% # Request fanout histogram
system.tol2bus.snoop_fanout::1                1701505     16.04%     99.72% # Request fanout histogram
system.tol2bus.snoop_fanout::2                  29649      0.28%    100.00% # Request fanout histogram
system.tol2bus.snoop_fanout::3                      0      0.00%    100.00% # Request fanout histogram
system.tol2bus.snoop_fanout::4                      0      0.00%    100.00% # Request fanout histogram
system.tol2bus.snoop_fanout::5                      0      0.00%    100.00% # Request fanout histogram
system.tol2bus.snoop_fanout::6                      0      0.00%    100.00% # Request fanout histogram
system.tol2bus.snoop_fanout::7                      0      0.00%    100.00% # Request fanout histogram
system.tol2bus.snoop_fanout::8                      0      0.00%    100.00% # Request fanout histogram
system.tol2bus.snoop_fanout::overflows              0      0.00%    100.00% # Request fanout histogram
system.tol2bus.snoop_fanout::min_value              0                       # Request fanout histogram
system.tol2bus.snoop_fanout::max_value              2                       # Request fanout histogram
system.tol2bus.snoop_fanout::total           10607153                       # Request fanout histogram
system.tol2bus.reqLayer0.occupancy         4249284468                       # Layer occupancy (ticks)
system.tol2bus.reqLayer0.utilization              6.1                       # Layer utilization (%)
system.tol2bus.respLayer1.occupancy        1569307849                       # Layer occupancy (ticks)
system.tol2bus.respLayer1.utilization             2.3                       # Layer utilization (%)
system.tol2bus.respLayer0.occupancy         107406370                       # Layer occupancy (ticks)
system.tol2bus.respLayer0.utilization             0.2                       # Layer utilization (%)
system.tol2bus.respLayer3.occupancy        1493932669                       # Layer occupancy (ticks)
system.tol2bus.respLayer3.utilization             2.1                       # Layer utilization (%)
system.tol2bus.respLayer2.occupancy          22535153                       # Layer occupancy (ticks)
system.tol2bus.respLayer2.utilization             0.0                       # Layer utilization (%)
system.tol2bus.snoopLayer0.occupancy             1501                       # Layer occupancy (ticks)
system.tol2bus.snoopLayer0.utilization            0.0                       # Layer utilization (%)

---------- End Simulation Statistics   ----------
