
---------- Begin Simulation Statistics ----------
final_tick                               1299416567000                       # Number of ticks from beginning of simulation (restored from checkpoints and never reset)
host_inst_rate                                  63824                       # Simulator instruction rate (inst/s)
host_mem_usage                                 703588                       # Number of bytes of host memory used
host_op_rate                                    64011                       # Simulator op (including micro ops) rate (op/s)
host_seconds                                 22508.71                       # Real time elapsed on the host
host_tick_rate                               57729499                       # Simulator tick rate (ticks/s)
sim_freq                                 1000000000000                       # Frequency of simulated ticks
sim_insts                                  1436606389                       # Number of instructions simulated
sim_ops                                    1440810154                       # Number of ops (including micro ops) simulated
sim_seconds                                  1.299417                       # Number of seconds simulated
sim_ticks                                1299416567000                       # Number of ticks simulated
system.cpu0.branchPred.BTBCorrect                   0                       # Number of correct BTB predictions (this stat may not work properly.
system.cpu0.branchPred.BTBHitPct            87.336056                       # BTB Hit Percentage
system.cpu0.branchPred.BTBHits              177952258                       # Number of BTB hits
system.cpu0.branchPred.BTBLookups           203755775                       # Number of BTB lookups
system.cpu0.branchPred.RASInCorrect                 0                       # Number of incorrect RAS predictions.
system.cpu0.branchPred.condIncorrect         13442807                       # Number of conditional branches incorrect
system.cpu0.branchPred.condPredicted        273666804                       # Number of conditional branches predicted
system.cpu0.branchPred.indirectHits          21682720                       # Number of indirect target hits.
system.cpu0.branchPred.indirectLookups       23168875                       # Number of indirect predictor lookups.
system.cpu0.branchPred.indirectMisses         1486155                       # Number of indirect misses.
system.cpu0.branchPred.lookups              346623894                       # Number of BP lookups
system.cpu0.branchPred.usedRAS                      0                       # Number of times the RAS was used to get a target.
system.cpu0.branchPredindirectMispredicted      2188588                       # Number of mispredicted indirect branches.
system.cpu0.commit.amos                       2100294                       # Number of atomic instructions committed
system.cpu0.commit.branchMispredicts          8780594                       # The number of times a branch was mispredicted
system.cpu0.commit.branches                 329546050                       # Number of branches committed
system.cpu0.commit.bw_lim_events             35739260                       # number cycles where commit BW limit reached
system.cpu0.commit.commitNonSpecStalls        6309806                       # The number of times commit has been forced to stall to communicate backwards
system.cpu0.commit.commitSquashedInsts       67190874                       # The number of squashed insts skipped by commit
system.cpu0.commit.committedInsts          1316551568                       # Number of instructions committed
system.cpu0.commit.committedOps            1318655159                       # Number of ops (including micro ops) committed
system.cpu0.commit.committed_per_cycle::samples   2414571189                       # Number of insts commited each cycle
system.cpu0.commit.committed_per_cycle::mean     0.546124                       # Number of insts commited each cycle
system.cpu0.commit.committed_per_cycle::stdev     1.296749                       # Number of insts commited each cycle
system.cpu0.commit.committed_per_cycle::underflows            0      0.00%      0.00% # Number of insts commited each cycle
system.cpu0.commit.committed_per_cycle::0   1759867329     72.89%     72.89% # Number of insts commited each cycle
system.cpu0.commit.committed_per_cycle::1    405156872     16.78%     89.66% # Number of insts commited each cycle
system.cpu0.commit.committed_per_cycle::2     84594776      3.50%     93.17% # Number of insts commited each cycle
system.cpu0.commit.committed_per_cycle::3     87683959      3.63%     96.80% # Number of insts commited each cycle
system.cpu0.commit.committed_per_cycle::4     24591083      1.02%     97.82% # Number of insts commited each cycle
system.cpu0.commit.committed_per_cycle::5      8800473      0.36%     98.18% # Number of insts commited each cycle
system.cpu0.commit.committed_per_cycle::6      3985978      0.17%     98.35% # Number of insts commited each cycle
system.cpu0.commit.committed_per_cycle::7      4151459      0.17%     98.52% # Number of insts commited each cycle
system.cpu0.commit.committed_per_cycle::8     35739260      1.48%    100.00% # Number of insts commited each cycle
system.cpu0.commit.committed_per_cycle::overflows            0      0.00%    100.00% # Number of insts commited each cycle
system.cpu0.commit.committed_per_cycle::min_value            0                       # Number of insts commited each cycle
system.cpu0.commit.committed_per_cycle::max_value            8                       # Number of insts commited each cycle
system.cpu0.commit.committed_per_cycle::total   2414571189                       # Number of insts commited each cycle
system.cpu0.commit.fp_insts                        46                       # Number of committed floating point instructions.
system.cpu0.commit.function_calls            25143492                       # Number of function calls committed.
system.cpu0.commit.int_insts               1273923279                       # Number of committed integer instructions.
system.cpu0.commit.loads                    405171360                       # Number of loads committed
system.cpu0.commit.membars                    4203757                       # Number of memory barriers committed
system.cpu0.commit.op_class_0::No_OpClass      4203763      0.32%      0.32% # Class of committed instruction
system.cpu0.commit.op_class_0::IntAlu       742063804     56.27%     56.59% # Class of committed instruction
system.cpu0.commit.op_class_0::IntMult       11831786      0.90%     57.49% # Class of committed instruction
system.cpu0.commit.op_class_0::IntDiv         2099835      0.16%     57.65% # Class of committed instruction
system.cpu0.commit.op_class_0::FloatAdd             0      0.00%     57.65% # Class of committed instruction
system.cpu0.commit.op_class_0::FloatCmp             4      0.00%     57.65% # Class of committed instruction
system.cpu0.commit.op_class_0::FloatCvt            12      0.00%     57.65% # Class of committed instruction
system.cpu0.commit.op_class_0::FloatMult            0      0.00%     57.65% # Class of committed instruction
system.cpu0.commit.op_class_0::FloatMultAcc            0      0.00%     57.65% # Class of committed instruction
system.cpu0.commit.op_class_0::FloatDiv             2      0.00%     57.65% # Class of committed instruction
system.cpu0.commit.op_class_0::FloatMisc            4      0.00%     57.65% # Class of committed instruction
system.cpu0.commit.op_class_0::FloatSqrt            0      0.00%     57.65% # Class of committed instruction
system.cpu0.commit.op_class_0::SimdAdd              0      0.00%     57.65% # Class of committed instruction
system.cpu0.commit.op_class_0::SimdAddAcc            0      0.00%     57.65% # Class of committed instruction
system.cpu0.commit.op_class_0::SimdAlu              0      0.00%     57.65% # Class of committed instruction
system.cpu0.commit.op_class_0::SimdCmp              0      0.00%     57.65% # Class of committed instruction
system.cpu0.commit.op_class_0::SimdCvt              0      0.00%     57.65% # Class of committed instruction
system.cpu0.commit.op_class_0::SimdMisc             0      0.00%     57.65% # Class of committed instruction
system.cpu0.commit.op_class_0::SimdMult             0      0.00%     57.65% # Class of committed instruction
system.cpu0.commit.op_class_0::SimdMultAcc            0      0.00%     57.65% # Class of committed instruction
system.cpu0.commit.op_class_0::SimdShift            0      0.00%     57.65% # Class of committed instruction
system.cpu0.commit.op_class_0::SimdShiftAcc            0      0.00%     57.65% # Class of committed instruction
system.cpu0.commit.op_class_0::SimdDiv              0      0.00%     57.65% # Class of committed instruction
system.cpu0.commit.op_class_0::SimdSqrt             0      0.00%     57.65% # Class of committed instruction
system.cpu0.commit.op_class_0::SimdFloatAdd            0      0.00%     57.65% # Class of committed instruction
system.cpu0.commit.op_class_0::SimdFloatAlu            0      0.00%     57.65% # Class of committed instruction
system.cpu0.commit.op_class_0::SimdFloatCmp            0      0.00%     57.65% # Class of committed instruction
system.cpu0.commit.op_class_0::SimdFloatCvt            0      0.00%     57.65% # Class of committed instruction
system.cpu0.commit.op_class_0::SimdFloatDiv            0      0.00%     57.65% # Class of committed instruction
system.cpu0.commit.op_class_0::SimdFloatMisc            0      0.00%     57.65% # Class of committed instruction
system.cpu0.commit.op_class_0::SimdFloatMult            0      0.00%     57.65% # Class of committed instruction
system.cpu0.commit.op_class_0::SimdFloatMultAcc            0      0.00%     57.65% # Class of committed instruction
system.cpu0.commit.op_class_0::SimdFloatSqrt            0      0.00%     57.65% # Class of committed instruction
system.cpu0.commit.op_class_0::SimdReduceAdd            0      0.00%     57.65% # Class of committed instruction
system.cpu0.commit.op_class_0::SimdReduceAlu            0      0.00%     57.65% # Class of committed instruction
system.cpu0.commit.op_class_0::SimdReduceCmp            0      0.00%     57.65% # Class of committed instruction
system.cpu0.commit.op_class_0::SimdFloatReduceAdd            0      0.00%     57.65% # Class of committed instruction
system.cpu0.commit.op_class_0::SimdFloatReduceCmp            0      0.00%     57.65% # Class of committed instruction
system.cpu0.commit.op_class_0::SimdAes              0      0.00%     57.65% # Class of committed instruction
system.cpu0.commit.op_class_0::SimdAesMix            0      0.00%     57.65% # Class of committed instruction
system.cpu0.commit.op_class_0::SimdSha1Hash            0      0.00%     57.65% # Class of committed instruction
system.cpu0.commit.op_class_0::SimdSha1Hash2            0      0.00%     57.65% # Class of committed instruction
system.cpu0.commit.op_class_0::SimdSha256Hash            0      0.00%     57.65% # Class of committed instruction
system.cpu0.commit.op_class_0::SimdSha256Hash2            0      0.00%     57.65% # Class of committed instruction
system.cpu0.commit.op_class_0::SimdShaSigma2            0      0.00%     57.65% # Class of committed instruction
system.cpu0.commit.op_class_0::SimdShaSigma3            0      0.00%     57.65% # Class of committed instruction
system.cpu0.commit.op_class_0::SimdPredAlu            0      0.00%     57.65% # Class of committed instruction
system.cpu0.commit.op_class_0::MemRead      407271646     30.89%     88.53% # Class of committed instruction
system.cpu0.commit.op_class_0::MemWrite     151184279     11.47%    100.00% # Class of committed instruction
system.cpu0.commit.op_class_0::FloatMemRead            8      0.00%    100.00% # Class of committed instruction
system.cpu0.commit.op_class_0::FloatMemWrite           16      0.00%    100.00% # Class of committed instruction
system.cpu0.commit.op_class_0::IprAccess            0      0.00%    100.00% # Class of committed instruction
system.cpu0.commit.op_class_0::InstPrefetch            0      0.00%    100.00% # Class of committed instruction
system.cpu0.commit.op_class_0::total       1318655159                       # Class of committed instruction
system.cpu0.commit.refs                     558455949                       # Number of memory references committed
system.cpu0.commit.swp_count                        0                       # Number of s/w prefetches committed
system.cpu0.commit.vec_insts                        0                       # Number of committed Vector instructions.
system.cpu0.committedInsts                 1316551568                       # Number of Instructions Simulated
system.cpu0.committedOps                   1318655159                       # Number of Ops (including micro ops) Simulated
system.cpu0.cpi                              1.966459                       # CPI: Cycles Per Instruction
system.cpu0.cpi_total                        1.966459                       # CPI: Total CPI of All Threads
system.cpu0.decode.BlockedCycles            495140453                       # Number of cycles decode is blocked
system.cpu0.decode.BranchMispred              4714912                       # Number of times decode detected a branch misprediction
system.cpu0.decode.BranchResolved           176837890                       # Number of times decode resolved a branch
system.cpu0.decode.DecodedInsts            1407802553                       # Number of instructions handled by decode
system.cpu0.decode.IdleCycles               943693509                       # Number of cycles decode is idle
system.cpu0.decode.RunCycles                974744536                       # Number of cycles decode is running
system.cpu0.decode.SquashCycles               8793291                       # Number of cycles decode is squashing
system.cpu0.decode.SquashedInsts              8263620                       # Number of squashed instructions handled by decode
system.cpu0.decode.UnblockCycles              6237014                       # Number of cycles decode is unblocking
system.cpu0.dtb.accesses                            0                       # DTB accesses
system.cpu0.dtb.hits                                0                       # DTB hits
system.cpu0.dtb.misses                              0                       # DTB misses
system.cpu0.dtb.read_accesses                       0                       # DTB read accesses
system.cpu0.dtb.read_hits                           0                       # DTB read hits
system.cpu0.dtb.read_misses                         0                       # DTB read misses
system.cpu0.dtb.write_accesses                      0                       # DTB write accesses
system.cpu0.dtb.write_hits                          0                       # DTB write hits
system.cpu0.dtb.write_misses                        0                       # DTB write misses
system.cpu0.fetch.Branches                  346623894                       # Number of branches that fetch encountered
system.cpu0.fetch.CacheLines                249390721                       # Number of cache lines fetched
system.cpu0.fetch.Cycles                   1478425045                       # Number of cycles fetch has run and was not squashing or blocked
system.cpu0.fetch.IcacheSquashes              5005967                       # Number of outstanding Icache misses that were squashed
system.cpu0.fetch.IcacheWaitRetryStallCycles          248                       # Number of stall cycles due to full MSHR
system.cpu0.fetch.Insts                    1426597610                       # Number of instructions fetch has processed
system.cpu0.fetch.MiscStallCycles                 115                       # Number of cycles fetch has spent waiting on interrupts, or bad addresses, or out of MSHRs
system.cpu0.fetch.PendingTrapStallCycles          122                       # Number of stall cycles due to pending traps
system.cpu0.fetch.SquashCycles               26911048                       # Number of cycles fetch has spent squashing
system.cpu0.fetch.branchRate                 0.133886                       # Number of branch fetches per cycle
system.cpu0.fetch.icacheStallCycles         936727749                       # Number of cycles fetch is stalled on an Icache miss
system.cpu0.fetch.predictedBranches         199634978                       # Number of branches that fetch has predicted taken
system.cpu0.fetch.rate                       0.551034                       # Number of inst fetches per cycle
system.cpu0.fetch.rateDist::samples        2428608803                       # Number of instructions fetched each cycle (Total)
system.cpu0.fetch.rateDist::mean             0.588280                       # Number of instructions fetched each cycle (Total)
system.cpu0.fetch.rateDist::stdev            0.870620                       # Number of instructions fetched each cycle (Total)
system.cpu0.fetch.rateDist::underflows              0      0.00%      0.00% # Number of instructions fetched each cycle (Total)
system.cpu0.fetch.rateDist::0              1407529237     57.96%     57.96% # Number of instructions fetched each cycle (Total)
system.cpu0.fetch.rateDist::1               756983162     31.17%     89.13% # Number of instructions fetched each cycle (Total)
system.cpu0.fetch.rateDist::2               157025869      6.47%     95.59% # Number of instructions fetched each cycle (Total)
system.cpu0.fetch.rateDist::3                90273006      3.72%     99.31% # Number of instructions fetched each cycle (Total)
system.cpu0.fetch.rateDist::4                 7766382      0.32%     99.63% # Number of instructions fetched each cycle (Total)
system.cpu0.fetch.rateDist::5                 4715427      0.19%     99.82% # Number of instructions fetched each cycle (Total)
system.cpu0.fetch.rateDist::6                  109394      0.00%     99.83% # Number of instructions fetched each cycle (Total)
system.cpu0.fetch.rateDist::7                 2101607      0.09%     99.91% # Number of instructions fetched each cycle (Total)
system.cpu0.fetch.rateDist::8                 2104719      0.09%    100.00% # Number of instructions fetched each cycle (Total)
system.cpu0.fetch.rateDist::overflows               0      0.00%    100.00% # Number of instructions fetched each cycle (Total)
system.cpu0.fetch.rateDist::min_value               0                       # Number of instructions fetched each cycle (Total)
system.cpu0.fetch.rateDist::max_value               8                       # Number of instructions fetched each cycle (Total)
system.cpu0.fetch.rateDist::total          2428608803                       # Number of instructions fetched each cycle (Total)
system.cpu0.fp_regfile_reads                       40                       # number of floating regfile reads
system.cpu0.fp_regfile_writes                      22                       # number of floating regfile writes
system.cpu0.idleCycles                      160335694                       # Total number of cycles that the CPU has spent unscheduled due to idling
system.cpu0.iew.branchMispredicts             8913934                       # Number of branch mispredicts detected at execute
system.cpu0.iew.exec_branches               336501375                       # Number of branches executed
system.cpu0.iew.exec_nop                            0                       # number of nop insts executed
system.cpu0.iew.exec_rate                    0.529602                       # Inst execution rate
system.cpu0.iew.exec_refs                   587051537                       # number of memory reference insts executed
system.cpu0.iew.exec_stores                 155939316                       # Number of stores executed
system.cpu0.iew.exec_swp                            0                       # number of swp insts executed
system.cpu0.iew.iewBlockCycles              385047562                       # Number of cycles IEW is blocking
system.cpu0.iew.iewDispLoadInsts            431440873                       # Number of dispatched load instructions
system.cpu0.iew.iewDispNonSpecInsts           2106238                       # Number of dispatched non-speculative instructions
system.cpu0.iew.iewDispSquashedInsts          3222632                       # Number of squashed instructions skipped by dispatch
system.cpu0.iew.iewDispStoreInsts           158173075                       # Number of dispatched store instructions
system.cpu0.iew.iewDispatchedInsts         1385766270                       # Number of instructions dispatched to IQ
system.cpu0.iew.iewExecLoadInsts            431112221                       # Number of load instructions executed
system.cpu0.iew.iewExecSquashedInsts          9050522                       # Number of squashed instructions skipped in execute
system.cpu0.iew.iewExecutedInsts           1371108968                       # Number of executed instructions
system.cpu0.iew.iewIQFullEvents               1316410                       # Number of times the IQ has become full, causing a stall
system.cpu0.iew.iewIdleCycles                       0                       # Number of cycles IEW is idle
system.cpu0.iew.iewLSQFullEvents             15009088                       # Number of times the LSQ has become full, causing a stall
system.cpu0.iew.iewSquashCycles               8793291                       # Number of cycles IEW is squashing
system.cpu0.iew.iewUnblockCycles             19028423                       # Number of cycles IEW is unblocking
system.cpu0.iew.lsq.thread0.blockedLoads            0                       # Number of blocked loads due to partial load-store forwarding
system.cpu0.iew.lsq.thread0.cacheBlocked       211066                       # Number of times an access to memory failed due to the cache being blocked
system.cpu0.iew.lsq.thread0.forwLoads        20510868                       # Number of loads that had data forwarded from stores
system.cpu0.iew.lsq.thread0.ignoredResponses        40094                       # Number of memory responses ignored because the instruction is squashed
system.cpu0.iew.lsq.thread0.invAddrLoads            0                       # Number of loads ignored due to an invalid address
system.cpu0.iew.lsq.thread0.invAddrSwpfs            0                       # Number of software prefetches ignored due to an invalid address
system.cpu0.iew.lsq.thread0.memOrderViolation        13380                       # Number of memory ordering violations
system.cpu0.iew.lsq.thread0.rescheduledLoads      4815609                       # Number of loads that were rescheduled
system.cpu0.iew.lsq.thread0.squashedLoads     26269513                       # Number of loads squashed
system.cpu0.iew.lsq.thread0.squashedStores      4888486                       # Number of stores squashed
system.cpu0.iew.memOrderViolationEvents         13380                       # Number of memory order violations
system.cpu0.iew.predictedNotTakenIncorrect       748945                       # Number of branches that were predicted not taken incorrectly
system.cpu0.iew.predictedTakenIncorrect       8164989                       # Number of branches that were predicted taken incorrectly
system.cpu0.iew.wb_consumers                579769151                       # num instructions consuming a value
system.cpu0.iew.wb_count                   1359632911                       # cumulative count of insts written-back
system.cpu0.iew.wb_fanout                    0.897672                       # average fanout of values written-back
system.cpu0.iew.wb_producers                520442539                       # num instructions producing a value
system.cpu0.iew.wb_rate                      0.525169                       # insts written-back per cycle
system.cpu0.iew.wb_sent                    1359743288                       # cumulative count of insts sent to commit
system.cpu0.int_regfile_reads              1682189303                       # number of integer regfile reads
system.cpu0.int_regfile_writes              876969942                       # number of integer regfile writes
system.cpu0.ipc                              0.508528                       # IPC: Instructions Per Cycle
system.cpu0.ipc_total                        0.508528                       # IPC: Total IPC of All Threads
system.cpu0.iq.FU_type_0::No_OpClass          4205655      0.30%      0.30% # Type of FU issued
system.cpu0.iq.FU_type_0::IntAlu            770732722     55.84%     56.15% # Type of FU issued
system.cpu0.iq.FU_type_0::IntMult            11833293      0.86%     57.01% # Type of FU issued
system.cpu0.iq.FU_type_0::IntDiv              2100468      0.15%     57.16% # Type of FU issued
system.cpu0.iq.FU_type_0::FloatAdd                  0      0.00%     57.16% # Type of FU issued
system.cpu0.iq.FU_type_0::FloatCmp                  4      0.00%     57.16% # Type of FU issued
system.cpu0.iq.FU_type_0::FloatCvt                 12      0.00%     57.16% # Type of FU issued
system.cpu0.iq.FU_type_0::FloatMult                 0      0.00%     57.16% # Type of FU issued
system.cpu0.iq.FU_type_0::FloatMultAcc              0      0.00%     57.16% # Type of FU issued
system.cpu0.iq.FU_type_0::FloatDiv                  2      0.00%     57.16% # Type of FU issued
system.cpu0.iq.FU_type_0::FloatMisc                 4      0.00%     57.16% # Type of FU issued
system.cpu0.iq.FU_type_0::FloatSqrt                 0      0.00%     57.16% # Type of FU issued
system.cpu0.iq.FU_type_0::SimdAdd                   0      0.00%     57.16% # Type of FU issued
system.cpu0.iq.FU_type_0::SimdAddAcc                0      0.00%     57.16% # Type of FU issued
system.cpu0.iq.FU_type_0::SimdAlu                   0      0.00%     57.16% # Type of FU issued
system.cpu0.iq.FU_type_0::SimdCmp                   0      0.00%     57.16% # Type of FU issued
system.cpu0.iq.FU_type_0::SimdCvt                   0      0.00%     57.16% # Type of FU issued
system.cpu0.iq.FU_type_0::SimdMisc                  0      0.00%     57.16% # Type of FU issued
system.cpu0.iq.FU_type_0::SimdMult                  0      0.00%     57.16% # Type of FU issued
system.cpu0.iq.FU_type_0::SimdMultAcc               0      0.00%     57.16% # Type of FU issued
system.cpu0.iq.FU_type_0::SimdShift                 0      0.00%     57.16% # Type of FU issued
system.cpu0.iq.FU_type_0::SimdShiftAcc              0      0.00%     57.16% # Type of FU issued
system.cpu0.iq.FU_type_0::SimdDiv                   0      0.00%     57.16% # Type of FU issued
system.cpu0.iq.FU_type_0::SimdSqrt                  0      0.00%     57.16% # Type of FU issued
system.cpu0.iq.FU_type_0::SimdFloatAdd              0      0.00%     57.16% # Type of FU issued
system.cpu0.iq.FU_type_0::SimdFloatAlu              0      0.00%     57.16% # Type of FU issued
system.cpu0.iq.FU_type_0::SimdFloatCmp              0      0.00%     57.16% # Type of FU issued
system.cpu0.iq.FU_type_0::SimdFloatCvt              0      0.00%     57.16% # Type of FU issued
system.cpu0.iq.FU_type_0::SimdFloatDiv              0      0.00%     57.16% # Type of FU issued
system.cpu0.iq.FU_type_0::SimdFloatMisc             0      0.00%     57.16% # Type of FU issued
system.cpu0.iq.FU_type_0::SimdFloatMult             0      0.00%     57.16% # Type of FU issued
system.cpu0.iq.FU_type_0::SimdFloatMultAcc            0      0.00%     57.16% # Type of FU issued
system.cpu0.iq.FU_type_0::SimdFloatSqrt             0      0.00%     57.16% # Type of FU issued
system.cpu0.iq.FU_type_0::SimdReduceAdd             0      0.00%     57.16% # Type of FU issued
system.cpu0.iq.FU_type_0::SimdReduceAlu             0      0.00%     57.16% # Type of FU issued
system.cpu0.iq.FU_type_0::SimdReduceCmp             0      0.00%     57.16% # Type of FU issued
system.cpu0.iq.FU_type_0::SimdFloatReduceAdd            0      0.00%     57.16% # Type of FU issued
system.cpu0.iq.FU_type_0::SimdFloatReduceCmp            0      0.00%     57.16% # Type of FU issued
system.cpu0.iq.FU_type_0::SimdAes                   0      0.00%     57.16% # Type of FU issued
system.cpu0.iq.FU_type_0::SimdAesMix                0      0.00%     57.16% # Type of FU issued
system.cpu0.iq.FU_type_0::SimdSha1Hash              0      0.00%     57.16% # Type of FU issued
system.cpu0.iq.FU_type_0::SimdSha1Hash2             0      0.00%     57.16% # Type of FU issued
system.cpu0.iq.FU_type_0::SimdSha256Hash            0      0.00%     57.16% # Type of FU issued
system.cpu0.iq.FU_type_0::SimdSha256Hash2            0      0.00%     57.16% # Type of FU issued
system.cpu0.iq.FU_type_0::SimdShaSigma2             0      0.00%     57.16% # Type of FU issued
system.cpu0.iq.FU_type_0::SimdShaSigma3             0      0.00%     57.16% # Type of FU issued
system.cpu0.iq.FU_type_0::SimdPredAlu               0      0.00%     57.16% # Type of FU issued
system.cpu0.iq.FU_type_0::MemRead           435753222     31.57%     88.73% # Type of FU issued
system.cpu0.iq.FU_type_0::MemWrite          155534085     11.27%    100.00% # Type of FU issued
system.cpu0.iq.FU_type_0::FloatMemRead              8      0.00%    100.00% # Type of FU issued
system.cpu0.iq.FU_type_0::FloatMemWrite            16      0.00%    100.00% # Type of FU issued
system.cpu0.iq.FU_type_0::IprAccess                 0      0.00%    100.00% # Type of FU issued
system.cpu0.iq.FU_type_0::InstPrefetch              0      0.00%    100.00% # Type of FU issued
system.cpu0.iq.FU_type_0::total            1380159491                       # Type of FU issued
system.cpu0.iq.fp_alu_accesses                     48                       # Number of floating point alu accesses
system.cpu0.iq.fp_inst_queue_reads                 94                       # Number of floating instruction queue reads
system.cpu0.iq.fp_inst_queue_wakeup_accesses           46                       # Number of floating instruction queue wakeup accesses
system.cpu0.iq.fp_inst_queue_writes                46                       # Number of floating instruction queue writes
system.cpu0.iq.fu_busy_cnt                    2986686                       # FU busy when requested
system.cpu0.iq.fu_busy_rate                  0.002164                       # FU busy rate (busy events/executed inst)
system.cpu0.iq.fu_full::No_OpClass                  0      0.00%      0.00% # attempts to use FU when none available
system.cpu0.iq.fu_full::IntAlu                 535319     17.92%     17.92% # attempts to use FU when none available
system.cpu0.iq.fu_full::IntMult                     0      0.00%     17.92% # attempts to use FU when none available
system.cpu0.iq.fu_full::IntDiv                      0      0.00%     17.92% # attempts to use FU when none available
system.cpu0.iq.fu_full::FloatAdd                    0      0.00%     17.92% # attempts to use FU when none available
system.cpu0.iq.fu_full::FloatCmp                    0      0.00%     17.92% # attempts to use FU when none available
system.cpu0.iq.fu_full::FloatCvt                    0      0.00%     17.92% # attempts to use FU when none available
system.cpu0.iq.fu_full::FloatMult                   0      0.00%     17.92% # attempts to use FU when none available
system.cpu0.iq.fu_full::FloatMultAcc                0      0.00%     17.92% # attempts to use FU when none available
system.cpu0.iq.fu_full::FloatDiv                    0      0.00%     17.92% # attempts to use FU when none available
system.cpu0.iq.fu_full::FloatMisc                   0      0.00%     17.92% # attempts to use FU when none available
system.cpu0.iq.fu_full::FloatSqrt                   0      0.00%     17.92% # attempts to use FU when none available
system.cpu0.iq.fu_full::SimdAdd                     0      0.00%     17.92% # attempts to use FU when none available
system.cpu0.iq.fu_full::SimdAddAcc                  0      0.00%     17.92% # attempts to use FU when none available
system.cpu0.iq.fu_full::SimdAlu                     0      0.00%     17.92% # attempts to use FU when none available
system.cpu0.iq.fu_full::SimdCmp                     0      0.00%     17.92% # attempts to use FU when none available
system.cpu0.iq.fu_full::SimdCvt                     0      0.00%     17.92% # attempts to use FU when none available
system.cpu0.iq.fu_full::SimdMisc                    0      0.00%     17.92% # attempts to use FU when none available
system.cpu0.iq.fu_full::SimdMult                    0      0.00%     17.92% # attempts to use FU when none available
system.cpu0.iq.fu_full::SimdMultAcc                 0      0.00%     17.92% # attempts to use FU when none available
system.cpu0.iq.fu_full::SimdShift                   0      0.00%     17.92% # attempts to use FU when none available
system.cpu0.iq.fu_full::SimdShiftAcc                0      0.00%     17.92% # attempts to use FU when none available
system.cpu0.iq.fu_full::SimdDiv                     0      0.00%     17.92% # attempts to use FU when none available
system.cpu0.iq.fu_full::SimdSqrt                    0      0.00%     17.92% # attempts to use FU when none available
system.cpu0.iq.fu_full::SimdFloatAdd                0      0.00%     17.92% # attempts to use FU when none available
system.cpu0.iq.fu_full::SimdFloatAlu                0      0.00%     17.92% # attempts to use FU when none available
system.cpu0.iq.fu_full::SimdFloatCmp                0      0.00%     17.92% # attempts to use FU when none available
system.cpu0.iq.fu_full::SimdFloatCvt                0      0.00%     17.92% # attempts to use FU when none available
system.cpu0.iq.fu_full::SimdFloatDiv                0      0.00%     17.92% # attempts to use FU when none available
system.cpu0.iq.fu_full::SimdFloatMisc               0      0.00%     17.92% # attempts to use FU when none available
system.cpu0.iq.fu_full::SimdFloatMult               0      0.00%     17.92% # attempts to use FU when none available
system.cpu0.iq.fu_full::SimdFloatMultAcc            0      0.00%     17.92% # attempts to use FU when none available
system.cpu0.iq.fu_full::SimdFloatSqrt               0      0.00%     17.92% # attempts to use FU when none available
system.cpu0.iq.fu_full::SimdReduceAdd               0      0.00%     17.92% # attempts to use FU when none available
system.cpu0.iq.fu_full::SimdReduceAlu               0      0.00%     17.92% # attempts to use FU when none available
system.cpu0.iq.fu_full::SimdReduceCmp               0      0.00%     17.92% # attempts to use FU when none available
system.cpu0.iq.fu_full::SimdFloatReduceAdd            0      0.00%     17.92% # attempts to use FU when none available
system.cpu0.iq.fu_full::SimdFloatReduceCmp            0      0.00%     17.92% # attempts to use FU when none available
system.cpu0.iq.fu_full::SimdAes                     0      0.00%     17.92% # attempts to use FU when none available
system.cpu0.iq.fu_full::SimdAesMix                  0      0.00%     17.92% # attempts to use FU when none available
system.cpu0.iq.fu_full::SimdSha1Hash                0      0.00%     17.92% # attempts to use FU when none available
system.cpu0.iq.fu_full::SimdSha1Hash2               0      0.00%     17.92% # attempts to use FU when none available
system.cpu0.iq.fu_full::SimdSha256Hash              0      0.00%     17.92% # attempts to use FU when none available
system.cpu0.iq.fu_full::SimdSha256Hash2             0      0.00%     17.92% # attempts to use FU when none available
system.cpu0.iq.fu_full::SimdShaSigma2               0      0.00%     17.92% # attempts to use FU when none available
system.cpu0.iq.fu_full::SimdShaSigma3               0      0.00%     17.92% # attempts to use FU when none available
system.cpu0.iq.fu_full::SimdPredAlu                 0      0.00%     17.92% # attempts to use FU when none available
system.cpu0.iq.fu_full::MemRead               2005774     67.16%     85.08% # attempts to use FU when none available
system.cpu0.iq.fu_full::MemWrite               445591     14.92%    100.00% # attempts to use FU when none available
system.cpu0.iq.fu_full::FloatMemRead                0      0.00%    100.00% # attempts to use FU when none available
system.cpu0.iq.fu_full::FloatMemWrite               2      0.00%    100.00% # attempts to use FU when none available
system.cpu0.iq.fu_full::IprAccess                   0      0.00%    100.00% # attempts to use FU when none available
system.cpu0.iq.fu_full::InstPrefetch                0      0.00%    100.00% # attempts to use FU when none available
system.cpu0.iq.int_alu_accesses            1378940474                       # Number of integer alu accesses
system.cpu0.iq.int_inst_queue_reads        5192154969                       # Number of integer instruction queue reads
system.cpu0.iq.int_inst_queue_wakeup_accesses   1359632865                       # Number of integer instruction queue wakeup accesses
system.cpu0.iq.int_inst_queue_writes       1452890331                       # Number of integer instruction queue writes
system.cpu0.iq.iqInstsAdded                1379456112                       # Number of instructions added to the IQ (excludes non-spec)
system.cpu0.iq.iqInstsIssued               1380159491                       # Number of instructions issued
system.cpu0.iq.iqNonSpecInstsAdded            6310158                       # Number of non-speculative instructions added to the IQ
system.cpu0.iq.iqSquashedInstsExamined       67111107                       # Number of squashed instructions iterated over during squash; mainly for profiling
system.cpu0.iq.iqSquashedInstsIssued           240593                       # Number of squashed instructions issued
system.cpu0.iq.iqSquashedNonSpecRemoved           352                       # Number of squashed non-spec instructions that were removed
system.cpu0.iq.iqSquashedOperandsExamined     27317026                       # Number of squashed operands that are examined and possibly removed from graph
system.cpu0.iq.issued_per_cycle::samples   2428608803                       # Number of insts issued each cycle
system.cpu0.iq.issued_per_cycle::mean        0.568292                       # Number of insts issued each cycle
system.cpu0.iq.issued_per_cycle::stdev       0.802535                       # Number of insts issued each cycle
system.cpu0.iq.issued_per_cycle::underflows            0      0.00%      0.00% # Number of insts issued each cycle
system.cpu0.iq.issued_per_cycle::0         1423964759     58.63%     58.63% # Number of insts issued each cycle
system.cpu0.iq.issued_per_cycle::1          703088524     28.95%     87.58% # Number of insts issued each cycle
system.cpu0.iq.issued_per_cycle::2          249129548     10.26%     97.84% # Number of insts issued each cycle
system.cpu0.iq.issued_per_cycle::3           39534282      1.63%     99.47% # Number of insts issued each cycle
system.cpu0.iq.issued_per_cycle::4            7453904      0.31%     99.78% # Number of insts issued each cycle
system.cpu0.iq.issued_per_cycle::5            3281842      0.14%     99.91% # Number of insts issued each cycle
system.cpu0.iq.issued_per_cycle::6            1377785      0.06%     99.97% # Number of insts issued each cycle
system.cpu0.iq.issued_per_cycle::7             507783      0.02%     99.99% # Number of insts issued each cycle
system.cpu0.iq.issued_per_cycle::8             270376      0.01%    100.00% # Number of insts issued each cycle
system.cpu0.iq.issued_per_cycle::overflows            0      0.00%    100.00% # Number of insts issued each cycle
system.cpu0.iq.issued_per_cycle::min_value            0                       # Number of insts issued each cycle
system.cpu0.iq.issued_per_cycle::max_value            8                       # Number of insts issued each cycle
system.cpu0.iq.issued_per_cycle::total     2428608803                       # Number of insts issued each cycle
system.cpu0.iq.rate                          0.533097                       # Inst issue rate
system.cpu0.iq.vec_alu_accesses                     0                       # Number of vector alu accesses
system.cpu0.iq.vec_inst_queue_reads                 0                       # Number of vector instruction queue reads
system.cpu0.iq.vec_inst_queue_wakeup_accesses            0                       # Number of vector instruction queue wakeup accesses
system.cpu0.iq.vec_inst_queue_writes                0                       # Number of vector instruction queue writes
system.cpu0.itb.accesses                            0                       # DTB accesses
system.cpu0.itb.hits                                0                       # DTB hits
system.cpu0.itb.misses                              0                       # DTB misses
system.cpu0.itb.read_accesses                       0                       # DTB read accesses
system.cpu0.itb.read_hits                           0                       # DTB read hits
system.cpu0.itb.read_misses                         0                       # DTB read misses
system.cpu0.itb.write_accesses                      0                       # DTB write accesses
system.cpu0.itb.write_hits                          0                       # DTB write hits
system.cpu0.itb.write_misses                        0                       # DTB write misses
system.cpu0.memDep0.conflictingLoads         18734211                       # Number of conflicting loads.
system.cpu0.memDep0.conflictingStores         1796626                       # Number of conflicting stores.
system.cpu0.memDep0.insertedLoads           431440873                       # Number of loads inserted to the mem dependence unit.
system.cpu0.memDep0.insertedStores          158173075                       # Number of stores inserted to the mem dependence unit.
system.cpu0.misc_regfile_reads                   1900                       # number of misc regfile reads
system.cpu0.misc_regfile_writes                    22                       # number of misc regfile writes
system.cpu0.numCycles                      2588944497                       # number of cpu cycles simulated
system.cpu0.numWorkItemsCompleted                   0                       # number of work items this cpu completed
system.cpu0.numWorkItemsStarted                     0                       # number of work items this cpu started
system.cpu0.quiesceCycles                     9889170                       # Total number of cycles that CPU has spent quiesced or waiting for an interrupt
system.cpu0.rename.BlockCycles              422365617                       # Number of cycles rename is blocking
system.cpu0.rename.CommittedMaps            845198132                       # Number of HB maps that are committed
system.cpu0.rename.IQFullEvents              15318627                       # Number of times rename has blocked due to IQ full
system.cpu0.rename.IdleCycles               955726424                       # Number of cycles rename is idle
system.cpu0.rename.LQFullEvents              23782715                       # Number of times rename has blocked due to LQ full
system.cpu0.rename.ROBFullEvents                57365                       # Number of times rename has blocked due to ROB full
system.cpu0.rename.RenameLookups           1716870467                       # Number of register rename lookups that rename has made
system.cpu0.rename.RenamedInsts            1398013135                       # Number of instructions processed by rename
system.cpu0.rename.RenamedOperands          906950996                       # Number of destination operands rename has renamed
system.cpu0.rename.RunCycles                967161261                       # Number of cycles rename is running
system.cpu0.rename.SQFullEvents              34325161                       # Number of times rename has blocked due to SQ full
system.cpu0.rename.SquashCycles               8793291                       # Number of cycles rename is squashing
system.cpu0.rename.UnblockCycles             74400507                       # Number of cycles rename is unblocking
system.cpu0.rename.UndoneMaps                61752856                       # Number of HB maps that are undone due to squashing
system.cpu0.rename.fp_rename_lookups               40                       # Number of floating rename lookups
system.cpu0.rename.int_rename_lookups      1716870427                       # Number of integer rename lookups
system.cpu0.rename.serializeStallCycles        161703                       # count of cycles rename stalled for serializing inst
system.cpu0.rename.serializingInsts              5898                       # count of serializing insts renamed
system.cpu0.rename.skidInsts                 33409709                       # count of insts added to the skid buffer
system.cpu0.rename.tempSerializingInsts          5893                       # count of temporary serializing insts renamed
system.cpu0.rob.rob_reads                  3764653808                       # The number of ROB reads
system.cpu0.rob.rob_writes                 2785759856                       # The number of ROB writes
system.cpu0.timesIdled                       29898789                       # Number of times that the entire CPU went into an idle state and unscheduled itself
system.cpu0.workload.numSyscalls                 1867                       # Number of system calls
system.cpu1.branchPred.BTBCorrect                   0                       # Number of correct BTB predictions (this stat may not work properly.
system.cpu1.branchPred.BTBHitPct            90.571591                       # BTB Hit Percentage
system.cpu1.branchPred.BTBHits               21088673                       # Number of BTB hits
system.cpu1.branchPred.BTBLookups            23283982                       # Number of BTB lookups
system.cpu1.branchPred.RASInCorrect                 0                       # Number of incorrect RAS predictions.
system.cpu1.branchPred.condIncorrect          2799670                       # Number of conditional branches incorrect
system.cpu1.branchPred.condPredicted         31182501                       # Number of conditional branches predicted
system.cpu1.branchPred.indirectHits           1089357                       # Number of indirect target hits.
system.cpu1.branchPred.indirectLookups        1121852                       # Number of indirect predictor lookups.
system.cpu1.branchPred.indirectMisses           32495                       # Number of indirect misses.
system.cpu1.branchPred.lookups               35903179                       # Number of BP lookups
system.cpu1.branchPred.usedRAS                      0                       # Number of times the RAS was used to get a target.
system.cpu1.branchPredindirectMispredicted        48329                       # Number of mispredicted indirect branches.
system.cpu1.commit.amos                       2099994                       # Number of atomic instructions committed
system.cpu1.commit.branchMispredicts          1995268                       # The number of times a branch was mispredicted
system.cpu1.commit.branches                  28117136                       # Number of branches committed
system.cpu1.commit.bw_lim_events              4055521                       # number cycles where commit BW limit reached
system.cpu1.commit.commitNonSpecStalls        6300663                       # The number of times commit has been forced to stall to communicate backwards
system.cpu1.commit.commitSquashedInsts       17854380                       # The number of squashed insts skipped by commit
system.cpu1.commit.committedInsts           120054821                       # Number of instructions committed
system.cpu1.commit.committedOps             122154995                       # Number of ops (including micro ops) committed
system.cpu1.commit.committed_per_cycle::samples    506276842                       # Number of insts commited each cycle
system.cpu1.commit.committed_per_cycle::mean     0.241281                       # Number of insts commited each cycle
system.cpu1.commit.committed_per_cycle::stdev     0.991181                       # Number of insts commited each cycle
system.cpu1.commit.committed_per_cycle::underflows            0      0.00%      0.00% # Number of insts commited each cycle
system.cpu1.commit.committed_per_cycle::0    456914259     90.25%     90.25% # Number of insts commited each cycle
system.cpu1.commit.committed_per_cycle::1     24492929      4.84%     95.09% # Number of insts commited each cycle
system.cpu1.commit.committed_per_cycle::2      8613178      1.70%     96.79% # Number of insts commited each cycle
system.cpu1.commit.committed_per_cycle::3      6973224      1.38%     98.17% # Number of insts commited each cycle
system.cpu1.commit.committed_per_cycle::4      1963029      0.39%     98.55% # Number of insts commited each cycle
system.cpu1.commit.committed_per_cycle::5       727391      0.14%     98.70% # Number of insts commited each cycle
system.cpu1.commit.committed_per_cycle::6      2178378      0.43%     99.13% # Number of insts commited each cycle
system.cpu1.commit.committed_per_cycle::7       358933      0.07%     99.20% # Number of insts commited each cycle
system.cpu1.commit.committed_per_cycle::8      4055521      0.80%    100.00% # Number of insts commited each cycle
system.cpu1.commit.committed_per_cycle::overflows            0      0.00%    100.00% # Number of insts commited each cycle
system.cpu1.commit.committed_per_cycle::min_value            0                       # Number of insts commited each cycle
system.cpu1.commit.committed_per_cycle::max_value            8                       # Number of insts commited each cycle
system.cpu1.commit.committed_per_cycle::total    506276842                       # Number of insts commited each cycle
system.cpu1.commit.fp_insts                        12                       # Number of committed floating point instructions.
system.cpu1.commit.function_calls             1797667                       # Number of function calls committed.
system.cpu1.commit.int_insts                116592326                       # Number of committed integer instructions.
system.cpu1.commit.loads                     30174217                       # Number of loads committed
system.cpu1.commit.membars                    4200110                       # Number of memory barriers committed
system.cpu1.commit.op_class_0::No_OpClass      4200110      3.44%      3.44% # Class of committed instruction
system.cpu1.commit.op_class_0::IntAlu        76660642     62.76%     66.20% # Class of committed instruction
system.cpu1.commit.op_class_0::IntMult             44      0.00%     66.20% # Class of committed instruction
system.cpu1.commit.op_class_0::IntDiv              88      0.00%     66.20% # Class of committed instruction
system.cpu1.commit.op_class_0::FloatAdd             0      0.00%     66.20% # Class of committed instruction
system.cpu1.commit.op_class_0::FloatCmp             0      0.00%     66.20% # Class of committed instruction
system.cpu1.commit.op_class_0::FloatCvt             0      0.00%     66.20% # Class of committed instruction
system.cpu1.commit.op_class_0::FloatMult            0      0.00%     66.20% # Class of committed instruction
system.cpu1.commit.op_class_0::FloatMultAcc            0      0.00%     66.20% # Class of committed instruction
system.cpu1.commit.op_class_0::FloatDiv             0      0.00%     66.20% # Class of committed instruction
system.cpu1.commit.op_class_0::FloatMisc            0      0.00%     66.20% # Class of committed instruction
system.cpu1.commit.op_class_0::FloatSqrt            0      0.00%     66.20% # Class of committed instruction
system.cpu1.commit.op_class_0::SimdAdd              0      0.00%     66.20% # Class of committed instruction
system.cpu1.commit.op_class_0::SimdAddAcc            0      0.00%     66.20% # Class of committed instruction
system.cpu1.commit.op_class_0::SimdAlu              0      0.00%     66.20% # Class of committed instruction
system.cpu1.commit.op_class_0::SimdCmp              0      0.00%     66.20% # Class of committed instruction
system.cpu1.commit.op_class_0::SimdCvt              0      0.00%     66.20% # Class of committed instruction
system.cpu1.commit.op_class_0::SimdMisc             0      0.00%     66.20% # Class of committed instruction
system.cpu1.commit.op_class_0::SimdMult             0      0.00%     66.20% # Class of committed instruction
system.cpu1.commit.op_class_0::SimdMultAcc            0      0.00%     66.20% # Class of committed instruction
system.cpu1.commit.op_class_0::SimdShift            0      0.00%     66.20% # Class of committed instruction
system.cpu1.commit.op_class_0::SimdShiftAcc            0      0.00%     66.20% # Class of committed instruction
system.cpu1.commit.op_class_0::SimdDiv              0      0.00%     66.20% # Class of committed instruction
system.cpu1.commit.op_class_0::SimdSqrt             0      0.00%     66.20% # Class of committed instruction
system.cpu1.commit.op_class_0::SimdFloatAdd            0      0.00%     66.20% # Class of committed instruction
system.cpu1.commit.op_class_0::SimdFloatAlu            0      0.00%     66.20% # Class of committed instruction
system.cpu1.commit.op_class_0::SimdFloatCmp            0      0.00%     66.20% # Class of committed instruction
system.cpu1.commit.op_class_0::SimdFloatCvt            0      0.00%     66.20% # Class of committed instruction
system.cpu1.commit.op_class_0::SimdFloatDiv            0      0.00%     66.20% # Class of committed instruction
system.cpu1.commit.op_class_0::SimdFloatMisc            0      0.00%     66.20% # Class of committed instruction
system.cpu1.commit.op_class_0::SimdFloatMult            0      0.00%     66.20% # Class of committed instruction
system.cpu1.commit.op_class_0::SimdFloatMultAcc            0      0.00%     66.20% # Class of committed instruction
system.cpu1.commit.op_class_0::SimdFloatSqrt            0      0.00%     66.20% # Class of committed instruction
system.cpu1.commit.op_class_0::SimdReduceAdd            0      0.00%     66.20% # Class of committed instruction
system.cpu1.commit.op_class_0::SimdReduceAlu            0      0.00%     66.20% # Class of committed instruction
system.cpu1.commit.op_class_0::SimdReduceCmp            0      0.00%     66.20% # Class of committed instruction
system.cpu1.commit.op_class_0::SimdFloatReduceAdd            0      0.00%     66.20% # Class of committed instruction
system.cpu1.commit.op_class_0::SimdFloatReduceCmp            0      0.00%     66.20% # Class of committed instruction
system.cpu1.commit.op_class_0::SimdAes              0      0.00%     66.20% # Class of committed instruction
system.cpu1.commit.op_class_0::SimdAesMix            0      0.00%     66.20% # Class of committed instruction
system.cpu1.commit.op_class_0::SimdSha1Hash            0      0.00%     66.20% # Class of committed instruction
system.cpu1.commit.op_class_0::SimdSha1Hash2            0      0.00%     66.20% # Class of committed instruction
system.cpu1.commit.op_class_0::SimdSha256Hash            0      0.00%     66.20% # Class of committed instruction
system.cpu1.commit.op_class_0::SimdSha256Hash2            0      0.00%     66.20% # Class of committed instruction
system.cpu1.commit.op_class_0::SimdShaSigma2            0      0.00%     66.20% # Class of committed instruction
system.cpu1.commit.op_class_0::SimdShaSigma3            0      0.00%     66.20% # Class of committed instruction
system.cpu1.commit.op_class_0::SimdPredAlu            0      0.00%     66.20% # Class of committed instruction
system.cpu1.commit.op_class_0::MemRead       32274211     26.42%     92.62% # Class of committed instruction
system.cpu1.commit.op_class_0::MemWrite       9019888      7.38%    100.00% # Class of committed instruction
system.cpu1.commit.op_class_0::FloatMemRead            0      0.00%    100.00% # Class of committed instruction
system.cpu1.commit.op_class_0::FloatMemWrite           12      0.00%    100.00% # Class of committed instruction
system.cpu1.commit.op_class_0::IprAccess            0      0.00%    100.00% # Class of committed instruction
system.cpu1.commit.op_class_0::InstPrefetch            0      0.00%    100.00% # Class of committed instruction
system.cpu1.commit.op_class_0::total        122154995                       # Class of committed instruction
system.cpu1.commit.refs                      41294111                       # Number of memory references committed
system.cpu1.commit.swp_count                        0                       # Number of s/w prefetches committed
system.cpu1.commit.vec_insts                        0                       # Number of committed Vector instructions.
system.cpu1.committedInsts                  120054821                       # Number of Instructions Simulated
system.cpu1.committedOps                    122154995                       # Number of Ops (including micro ops) Simulated
system.cpu1.cpi                              4.251191                       # CPI: Cycles Per Instruction
system.cpu1.cpi_total                        4.251191                       # CPI: Total CPI of All Threads
system.cpu1.decode.BlockedCycles            412759253                       # Number of cycles decode is blocked
system.cpu1.decode.BranchMispred               882502                       # Number of times decode detected a branch misprediction
system.cpu1.decode.BranchResolved            19966927                       # Number of times decode resolved a branch
system.cpu1.decode.DecodedInsts             146943865                       # Number of instructions handled by decode
system.cpu1.decode.IdleCycles                23507808                       # Number of cycles decode is idle
system.cpu1.decode.RunCycles                 66297063                       # Number of cycles decode is running
system.cpu1.decode.SquashCycles               1996963                       # Number of cycles decode is squashing
system.cpu1.decode.SquashedInsts              2142080                       # Number of squashed instructions handled by decode
system.cpu1.decode.UnblockCycles              5267209                       # Number of cycles decode is unblocking
system.cpu1.dtb.accesses                            0                       # DTB accesses
system.cpu1.dtb.hits                                0                       # DTB hits
system.cpu1.dtb.misses                              0                       # DTB misses
system.cpu1.dtb.read_accesses                       0                       # DTB read accesses
system.cpu1.dtb.read_hits                           0                       # DTB read hits
system.cpu1.dtb.read_misses                         0                       # DTB read misses
system.cpu1.dtb.write_accesses                      0                       # DTB write accesses
system.cpu1.dtb.write_hits                          0                       # DTB write hits
system.cpu1.dtb.write_misses                        0                       # DTB write misses
system.cpu1.fetch.Branches                   35903179                       # Number of branches that fetch encountered
system.cpu1.fetch.CacheLines                 22073300                       # Number of cache lines fetched
system.cpu1.fetch.Cycles                    483289121                       # Number of cycles fetch has run and was not squashing or blocked
system.cpu1.fetch.IcacheSquashes               205775                       # Number of outstanding Icache misses that were squashed
system.cpu1.fetch.Insts                     153630776                       # Number of instructions fetch has processed
system.cpu1.fetch.MiscStallCycles                   1                       # Number of cycles fetch has spent waiting on interrupts, or bad addresses, or out of MSHRs
system.cpu1.fetch.SquashCycles                5602730                       # Number of cycles fetch has spent squashing
system.cpu1.fetch.branchRate                 0.070347                       # Number of branch fetches per cycle
system.cpu1.fetch.icacheStallCycles          23737809                       # Number of cycles fetch is stalled on an Icache miss
system.cpu1.fetch.predictedBranches          22178030                       # Number of branches that fetch has predicted taken
system.cpu1.fetch.rate                       0.301015                       # Number of inst fetches per cycle
system.cpu1.fetch.rateDist::samples         509828296                       # Number of instructions fetched each cycle (Total)
system.cpu1.fetch.rateDist::mean             0.305458                       # Number of instructions fetched each cycle (Total)
system.cpu1.fetch.rateDist::stdev            0.729709                       # Number of instructions fetched each cycle (Total)
system.cpu1.fetch.rateDist::underflows              0      0.00%      0.00% # Number of instructions fetched each cycle (Total)
system.cpu1.fetch.rateDist::0               410597755     80.54%     80.54% # Number of instructions fetched each cycle (Total)
system.cpu1.fetch.rateDist::1                63081594     12.37%     92.91% # Number of instructions fetched each cycle (Total)
system.cpu1.fetch.rateDist::2                19956039      3.91%     96.82% # Number of instructions fetched each cycle (Total)
system.cpu1.fetch.rateDist::3                12609096      2.47%     99.30% # Number of instructions fetched each cycle (Total)
system.cpu1.fetch.rateDist::4                 3075438      0.60%     99.90% # Number of instructions fetched each cycle (Total)
system.cpu1.fetch.rateDist::5                  442621      0.09%     99.99% # Number of instructions fetched each cycle (Total)
system.cpu1.fetch.rateDist::6                   64976      0.01%    100.00% # Number of instructions fetched each cycle (Total)
system.cpu1.fetch.rateDist::7                     566      0.00%    100.00% # Number of instructions fetched each cycle (Total)
system.cpu1.fetch.rateDist::8                     211      0.00%    100.00% # Number of instructions fetched each cycle (Total)
system.cpu1.fetch.rateDist::overflows               0      0.00%    100.00% # Number of instructions fetched each cycle (Total)
system.cpu1.fetch.rateDist::min_value               0                       # Number of instructions fetched each cycle (Total)
system.cpu1.fetch.rateDist::max_value               8                       # Number of instructions fetched each cycle (Total)
system.cpu1.fetch.rateDist::total           509828296                       # Number of instructions fetched each cycle (Total)
system.cpu1.fp_regfile_reads                       12                       # number of floating regfile reads
system.cpu1.idleCycles                         547696                       # Total number of cycles that the CPU has spent unscheduled due to idling
system.cpu1.iew.branchMispredicts             2099063                       # Number of branch mispredicts detected at execute
system.cpu1.iew.exec_branches                30758038                       # Number of branches executed
system.cpu1.iew.exec_nop                            0                       # number of nop insts executed
system.cpu1.iew.exec_rate                    0.263483                       # Inst execution rate
system.cpu1.iew.exec_refs                    45877151                       # number of memory reference insts executed
system.cpu1.iew.exec_stores                  11562393                       # Number of stores executed
system.cpu1.iew.exec_swp                            0                       # number of swp insts executed
system.cpu1.iew.iewBlockCycles              334316474                       # Number of cycles IEW is blocking
system.cpu1.iew.iewDispLoadInsts             35126030                       # Number of dispatched load instructions
system.cpu1.iew.iewDispNonSpecInsts           2100662                       # Number of dispatched non-speculative instructions
system.cpu1.iew.iewDispSquashedInsts          1977313                       # Number of squashed instructions skipped by dispatch
system.cpu1.iew.iewDispStoreInsts            11991586                       # Number of dispatched store instructions
system.cpu1.iew.iewDispatchedInsts          139961892                       # Number of instructions dispatched to IQ
system.cpu1.iew.iewExecLoadInsts             34314758                       # Number of load instructions executed
system.cpu1.iew.iewExecSquashedInsts          2024788                       # Number of squashed instructions skipped in execute
system.cpu1.iew.iewExecutedInsts            134475531                       # Number of executed instructions
system.cpu1.iew.iewIQFullEvents               1417119                       # Number of times the IQ has become full, causing a stall
system.cpu1.iew.iewIdleCycles                       0                       # Number of cycles IEW is idle
system.cpu1.iew.iewLSQFullEvents             10790733                       # Number of times the LSQ has become full, causing a stall
system.cpu1.iew.iewSquashCycles               1996963                       # Number of cycles IEW is squashing
system.cpu1.iew.iewUnblockCycles             14734673                       # Number of cycles IEW is unblocking
system.cpu1.iew.lsq.thread0.blockedLoads            0                       # Number of blocked loads due to partial load-store forwarding
system.cpu1.iew.lsq.thread0.cacheBlocked       111931                       # Number of times an access to memory failed due to the cache being blocked
system.cpu1.iew.lsq.thread0.forwLoads         1137847                       # Number of loads that had data forwarded from stores
system.cpu1.iew.lsq.thread0.ignoredResponses        32290                       # Number of memory responses ignored because the instruction is squashed
system.cpu1.iew.lsq.thread0.invAddrLoads            0                       # Number of loads ignored due to an invalid address
system.cpu1.iew.lsq.thread0.invAddrSwpfs            0                       # Number of software prefetches ignored due to an invalid address
system.cpu1.iew.lsq.thread0.memOrderViolation         2248                       # Number of memory ordering violations
system.cpu1.iew.lsq.thread0.rescheduledLoads        18078                       # Number of loads that were rescheduled
system.cpu1.iew.lsq.thread0.squashedLoads      4951813                       # Number of loads squashed
system.cpu1.iew.lsq.thread0.squashedStores       871692                       # Number of stores squashed
system.cpu1.iew.memOrderViolationEvents          2248                       # Number of memory order violations
system.cpu1.iew.predictedNotTakenIncorrect       546351                       # Number of branches that were predicted not taken incorrectly
system.cpu1.iew.predictedTakenIncorrect       1552712                       # Number of branches that were predicted taken incorrectly
system.cpu1.iew.wb_consumers                 76734877                       # num instructions consuming a value
system.cpu1.iew.wb_count                    132798087                       # cumulative count of insts written-back
system.cpu1.iew.wb_fanout                    0.848806                       # average fanout of values written-back
system.cpu1.iew.wb_producers                 65132990                       # num instructions producing a value
system.cpu1.iew.wb_rate                      0.260197                       # insts written-back per cycle
system.cpu1.iew.wb_sent                     132878739                       # cumulative count of insts sent to commit
system.cpu1.int_regfile_reads               170504457                       # number of integer regfile reads
system.cpu1.int_regfile_writes               89488339                       # number of integer regfile writes
system.cpu1.ipc                              0.235228                       # IPC: Instructions Per Cycle
system.cpu1.ipc_total                        0.235228                       # IPC: Total IPC of All Threads
system.cpu1.iq.FU_type_0::No_OpClass          4200218      3.08%      3.08% # Type of FU issued
system.cpu1.iq.FU_type_0::IntAlu             85861231     62.90%     65.98% # Type of FU issued
system.cpu1.iq.FU_type_0::IntMult                  45      0.00%     65.98% # Type of FU issued
system.cpu1.iq.FU_type_0::IntDiv                   88      0.00%     65.98% # Type of FU issued
system.cpu1.iq.FU_type_0::FloatAdd                  0      0.00%     65.98% # Type of FU issued
system.cpu1.iq.FU_type_0::FloatCmp                  0      0.00%     65.98% # Type of FU issued
system.cpu1.iq.FU_type_0::FloatCvt                  0      0.00%     65.98% # Type of FU issued
system.cpu1.iq.FU_type_0::FloatMult                 0      0.00%     65.98% # Type of FU issued
system.cpu1.iq.FU_type_0::FloatMultAcc              0      0.00%     65.98% # Type of FU issued
system.cpu1.iq.FU_type_0::FloatDiv                  0      0.00%     65.98% # Type of FU issued
system.cpu1.iq.FU_type_0::FloatMisc                 0      0.00%     65.98% # Type of FU issued
system.cpu1.iq.FU_type_0::FloatSqrt                 0      0.00%     65.98% # Type of FU issued
system.cpu1.iq.FU_type_0::SimdAdd                   0      0.00%     65.98% # Type of FU issued
system.cpu1.iq.FU_type_0::SimdAddAcc                0      0.00%     65.98% # Type of FU issued
system.cpu1.iq.FU_type_0::SimdAlu                   0      0.00%     65.98% # Type of FU issued
system.cpu1.iq.FU_type_0::SimdCmp                   0      0.00%     65.98% # Type of FU issued
system.cpu1.iq.FU_type_0::SimdCvt                   0      0.00%     65.98% # Type of FU issued
system.cpu1.iq.FU_type_0::SimdMisc                  0      0.00%     65.98% # Type of FU issued
system.cpu1.iq.FU_type_0::SimdMult                  0      0.00%     65.98% # Type of FU issued
system.cpu1.iq.FU_type_0::SimdMultAcc               0      0.00%     65.98% # Type of FU issued
system.cpu1.iq.FU_type_0::SimdShift                 0      0.00%     65.98% # Type of FU issued
system.cpu1.iq.FU_type_0::SimdShiftAcc              0      0.00%     65.98% # Type of FU issued
system.cpu1.iq.FU_type_0::SimdDiv                   0      0.00%     65.98% # Type of FU issued
system.cpu1.iq.FU_type_0::SimdSqrt                  0      0.00%     65.98% # Type of FU issued
system.cpu1.iq.FU_type_0::SimdFloatAdd              0      0.00%     65.98% # Type of FU issued
system.cpu1.iq.FU_type_0::SimdFloatAlu              0      0.00%     65.98% # Type of FU issued
system.cpu1.iq.FU_type_0::SimdFloatCmp              0      0.00%     65.98% # Type of FU issued
system.cpu1.iq.FU_type_0::SimdFloatCvt              0      0.00%     65.98% # Type of FU issued
system.cpu1.iq.FU_type_0::SimdFloatDiv              0      0.00%     65.98% # Type of FU issued
system.cpu1.iq.FU_type_0::SimdFloatMisc             0      0.00%     65.98% # Type of FU issued
system.cpu1.iq.FU_type_0::SimdFloatMult             0      0.00%     65.98% # Type of FU issued
system.cpu1.iq.FU_type_0::SimdFloatMultAcc            0      0.00%     65.98% # Type of FU issued
system.cpu1.iq.FU_type_0::SimdFloatSqrt             0      0.00%     65.98% # Type of FU issued
system.cpu1.iq.FU_type_0::SimdReduceAdd             0      0.00%     65.98% # Type of FU issued
system.cpu1.iq.FU_type_0::SimdReduceAlu             0      0.00%     65.98% # Type of FU issued
system.cpu1.iq.FU_type_0::SimdReduceCmp             0      0.00%     65.98% # Type of FU issued
system.cpu1.iq.FU_type_0::SimdFloatReduceAdd            0      0.00%     65.98% # Type of FU issued
system.cpu1.iq.FU_type_0::SimdFloatReduceCmp            0      0.00%     65.98% # Type of FU issued
system.cpu1.iq.FU_type_0::SimdAes                   0      0.00%     65.98% # Type of FU issued
system.cpu1.iq.FU_type_0::SimdAesMix                0      0.00%     65.98% # Type of FU issued
system.cpu1.iq.FU_type_0::SimdSha1Hash              0      0.00%     65.98% # Type of FU issued
system.cpu1.iq.FU_type_0::SimdSha1Hash2             0      0.00%     65.98% # Type of FU issued
system.cpu1.iq.FU_type_0::SimdSha256Hash            0      0.00%     65.98% # Type of FU issued
system.cpu1.iq.FU_type_0::SimdSha256Hash2            0      0.00%     65.98% # Type of FU issued
system.cpu1.iq.FU_type_0::SimdShaSigma2             0      0.00%     65.98% # Type of FU issued
system.cpu1.iq.FU_type_0::SimdShaSigma3             0      0.00%     65.98% # Type of FU issued
system.cpu1.iq.FU_type_0::SimdPredAlu               0      0.00%     65.98% # Type of FU issued
system.cpu1.iq.FU_type_0::MemRead            36890216     27.03%     93.00% # Type of FU issued
system.cpu1.iq.FU_type_0::MemWrite            9548509      7.00%    100.00% # Type of FU issued
system.cpu1.iq.FU_type_0::FloatMemRead              0      0.00%    100.00% # Type of FU issued
system.cpu1.iq.FU_type_0::FloatMemWrite            12      0.00%    100.00% # Type of FU issued
system.cpu1.iq.FU_type_0::IprAccess                 0      0.00%    100.00% # Type of FU issued
system.cpu1.iq.FU_type_0::InstPrefetch              0      0.00%    100.00% # Type of FU issued
system.cpu1.iq.FU_type_0::total             136500319                       # Type of FU issued
system.cpu1.iq.fp_alu_accesses                     14                       # Number of floating point alu accesses
system.cpu1.iq.fp_inst_queue_reads                 26                       # Number of floating instruction queue reads
system.cpu1.iq.fp_inst_queue_wakeup_accesses           12                       # Number of floating instruction queue wakeup accesses
system.cpu1.iq.fp_inst_queue_writes                12                       # Number of floating instruction queue writes
system.cpu1.iq.fu_busy_cnt                    2843508                       # FU busy when requested
system.cpu1.iq.fu_busy_rate                  0.020832                       # FU busy rate (busy events/executed inst)
system.cpu1.iq.fu_full::No_OpClass                  0      0.00%      0.00% # attempts to use FU when none available
system.cpu1.iq.fu_full::IntAlu                 545612     19.19%     19.19% # attempts to use FU when none available
system.cpu1.iq.fu_full::IntMult                     0      0.00%     19.19% # attempts to use FU when none available
system.cpu1.iq.fu_full::IntDiv                      0      0.00%     19.19% # attempts to use FU when none available
system.cpu1.iq.fu_full::FloatAdd                    0      0.00%     19.19% # attempts to use FU when none available
system.cpu1.iq.fu_full::FloatCmp                    0      0.00%     19.19% # attempts to use FU when none available
system.cpu1.iq.fu_full::FloatCvt                    0      0.00%     19.19% # attempts to use FU when none available
system.cpu1.iq.fu_full::FloatMult                   0      0.00%     19.19% # attempts to use FU when none available
system.cpu1.iq.fu_full::FloatMultAcc                0      0.00%     19.19% # attempts to use FU when none available
system.cpu1.iq.fu_full::FloatDiv                    0      0.00%     19.19% # attempts to use FU when none available
system.cpu1.iq.fu_full::FloatMisc                   0      0.00%     19.19% # attempts to use FU when none available
system.cpu1.iq.fu_full::FloatSqrt                   0      0.00%     19.19% # attempts to use FU when none available
system.cpu1.iq.fu_full::SimdAdd                     0      0.00%     19.19% # attempts to use FU when none available
system.cpu1.iq.fu_full::SimdAddAcc                  0      0.00%     19.19% # attempts to use FU when none available
system.cpu1.iq.fu_full::SimdAlu                     0      0.00%     19.19% # attempts to use FU when none available
system.cpu1.iq.fu_full::SimdCmp                     0      0.00%     19.19% # attempts to use FU when none available
system.cpu1.iq.fu_full::SimdCvt                     0      0.00%     19.19% # attempts to use FU when none available
system.cpu1.iq.fu_full::SimdMisc                    0      0.00%     19.19% # attempts to use FU when none available
system.cpu1.iq.fu_full::SimdMult                    0      0.00%     19.19% # attempts to use FU when none available
system.cpu1.iq.fu_full::SimdMultAcc                 0      0.00%     19.19% # attempts to use FU when none available
system.cpu1.iq.fu_full::SimdShift                   0      0.00%     19.19% # attempts to use FU when none available
system.cpu1.iq.fu_full::SimdShiftAcc                0      0.00%     19.19% # attempts to use FU when none available
system.cpu1.iq.fu_full::SimdDiv                     0      0.00%     19.19% # attempts to use FU when none available
system.cpu1.iq.fu_full::SimdSqrt                    0      0.00%     19.19% # attempts to use FU when none available
system.cpu1.iq.fu_full::SimdFloatAdd                0      0.00%     19.19% # attempts to use FU when none available
system.cpu1.iq.fu_full::SimdFloatAlu                0      0.00%     19.19% # attempts to use FU when none available
system.cpu1.iq.fu_full::SimdFloatCmp                0      0.00%     19.19% # attempts to use FU when none available
system.cpu1.iq.fu_full::SimdFloatCvt                0      0.00%     19.19% # attempts to use FU when none available
system.cpu1.iq.fu_full::SimdFloatDiv                0      0.00%     19.19% # attempts to use FU when none available
system.cpu1.iq.fu_full::SimdFloatMisc               0      0.00%     19.19% # attempts to use FU when none available
system.cpu1.iq.fu_full::SimdFloatMult               0      0.00%     19.19% # attempts to use FU when none available
system.cpu1.iq.fu_full::SimdFloatMultAcc            0      0.00%     19.19% # attempts to use FU when none available
system.cpu1.iq.fu_full::SimdFloatSqrt               0      0.00%     19.19% # attempts to use FU when none available
system.cpu1.iq.fu_full::SimdReduceAdd               0      0.00%     19.19% # attempts to use FU when none available
system.cpu1.iq.fu_full::SimdReduceAlu               0      0.00%     19.19% # attempts to use FU when none available
system.cpu1.iq.fu_full::SimdReduceCmp               0      0.00%     19.19% # attempts to use FU when none available
system.cpu1.iq.fu_full::SimdFloatReduceAdd            0      0.00%     19.19% # attempts to use FU when none available
system.cpu1.iq.fu_full::SimdFloatReduceCmp            0      0.00%     19.19% # attempts to use FU when none available
system.cpu1.iq.fu_full::SimdAes                     0      0.00%     19.19% # attempts to use FU when none available
system.cpu1.iq.fu_full::SimdAesMix                  0      0.00%     19.19% # attempts to use FU when none available
system.cpu1.iq.fu_full::SimdSha1Hash                0      0.00%     19.19% # attempts to use FU when none available
system.cpu1.iq.fu_full::SimdSha1Hash2               0      0.00%     19.19% # attempts to use FU when none available
system.cpu1.iq.fu_full::SimdSha256Hash              0      0.00%     19.19% # attempts to use FU when none available
system.cpu1.iq.fu_full::SimdSha256Hash2             0      0.00%     19.19% # attempts to use FU when none available
system.cpu1.iq.fu_full::SimdShaSigma2               0      0.00%     19.19% # attempts to use FU when none available
system.cpu1.iq.fu_full::SimdShaSigma3               0      0.00%     19.19% # attempts to use FU when none available
system.cpu1.iq.fu_full::SimdPredAlu                 0      0.00%     19.19% # attempts to use FU when none available
system.cpu1.iq.fu_full::MemRead               1852115     65.13%     84.32% # attempts to use FU when none available
system.cpu1.iq.fu_full::MemWrite               445779     15.68%    100.00% # attempts to use FU when none available
[...]
system.cpu1.dcache.WriteReq_misses::.cpu1.data      2103487                       # number of WriteReq misses
system.cpu1.dcache.WriteReq_misses::total      2103487                       # number of WriteReq misses
system.cpu1.dcache.WriteReq_miss_latency::.cpu1.data 149621767406                       # number of WriteReq miss cycles
system.cpu1.dcache.WriteReq_miss_latency::total 149621767406                       # number of WriteReq miss cycles
system.cpu1.dcache.WriteReq_accesses::.cpu1.data      7737905                       # number of WriteReq accesses(hits+misses)
system.cpu1.dcache.WriteReq_accesses::total      7737905                       # number of WriteReq accesses(hits+misses)
system.cpu1.dcache.WriteReq_miss_rate::.cpu1.data     0.271842                       # miss rate for WriteReq accesses
system.cpu1.dcache.WriteReq_miss_rate::total     0.271842                       # miss rate for WriteReq accesses
system.cpu1.dcache.WriteReq_avg_miss_latency::.cpu1.data 71130.350416                       # average WriteReq miss latency
system.cpu1.dcache.WriteReq_avg_miss_latency::total 71130.350416                       # average WriteReq miss latency
system.cpu1.dcache.WriteReq_mshr_hits::.cpu1.data      1887138                       # number of WriteReq MSHR hits
system.cpu1.dcache.WriteReq_mshr_hits::total      1887138                       # number of WriteReq MSHR hits
system.cpu1.dcache.WriteReq_mshr_misses::.cpu1.data       216349                       # number of WriteReq MSHR misses
system.cpu1.dcache.WriteReq_mshr_misses::total       216349                       # number of WriteReq MSHR misses
system.cpu1.dcache.WriteReq_mshr_miss_latency::.cpu1.data  13640901409                       # number of WriteReq MSHR miss cycles
system.cpu1.dcache.WriteReq_mshr_miss_latency::total  13640901409                       # number of WriteReq MSHR miss cycles
system.cpu1.dcache.WriteReq_mshr_miss_rate::.cpu1.data     0.027960                       # mshr miss rate for WriteReq accesses
system.cpu1.dcache.WriteReq_mshr_miss_rate::total     0.027960                       # mshr miss rate for WriteReq accesses
system.cpu1.dcache.WriteReq_avg_mshr_miss_latency::.cpu1.data 63050.448160                       # average WriteReq mshr miss latency
system.cpu1.dcache.WriteReq_avg_mshr_miss_latency::total 63050.448160                       # average WriteReq mshr miss latency
system.cpu1.dcache.LoadLockedReq_hits::.cpu1.data         1261                       # number of LoadLockedReq hits
system.cpu1.dcache.LoadLockedReq_hits::total         1261                       # number of LoadLockedReq hits
system.cpu1.dcache.LoadLockedReq_misses::.cpu1.data          252                       # number of LoadLockedReq misses
system.cpu1.dcache.LoadLockedReq_misses::total          252                       # number of LoadLockedReq misses
system.cpu1.dcache.LoadLockedReq_miss_latency::.cpu1.data     21662000                       # number of LoadLockedReq miss cycles
system.cpu1.dcache.LoadLockedReq_miss_latency::total     21662000                       # number of LoadLockedReq miss cycles
system.cpu1.dcache.LoadLockedReq_accesses::.cpu1.data         1513                       # number of LoadLockedReq accesses(hits+misses)
system.cpu1.dcache.LoadLockedReq_accesses::total         1513                       # number of LoadLockedReq accesses(hits+misses)
system.cpu1.dcache.LoadLockedReq_miss_rate::.cpu1.data     0.166557                       # miss rate for LoadLockedReq accesses
system.cpu1.dcache.LoadLockedReq_miss_rate::total     0.166557                       # miss rate for LoadLockedReq accesses
system.cpu1.dcache.LoadLockedReq_avg_miss_latency::.cpu1.data 85960.317460                       # average LoadLockedReq miss latency
system.cpu1.dcache.LoadLockedReq_avg_miss_latency::total 85960.317460                       # average LoadLockedReq miss latency
system.cpu1.dcache.LoadLockedReq_mshr_hits::.cpu1.data          106                       # number of LoadLockedReq MSHR hits
system.cpu1.dcache.LoadLockedReq_mshr_hits::total          106                       # number of LoadLockedReq MSHR hits
system.cpu1.dcache.LoadLockedReq_mshr_misses::.cpu1.data          146                       # number of LoadLockedReq MSHR misses
system.cpu1.dcache.LoadLockedReq_mshr_misses::total          146                       # number of LoadLockedReq MSHR misses
system.cpu1.dcache.LoadLockedReq_mshr_miss_latency::.cpu1.data     12102000                       # number of LoadLockedReq MSHR miss cycles
system.cpu1.dcache.LoadLockedReq_mshr_miss_latency::total     12102000                       # number of LoadLockedReq MSHR miss cycles
system.cpu1.dcache.LoadLockedReq_mshr_miss_rate::.cpu1.data     0.096497                       # mshr miss rate for LoadLockedReq accesses
system.cpu1.dcache.LoadLockedReq_mshr_miss_rate::total     0.096497                       # mshr miss rate for LoadLockedReq accesses
system.cpu1.dcache.LoadLockedReq_avg_mshr_miss_latency::.cpu1.data 82890.410959                       # average LoadLockedReq mshr miss latency
system.cpu1.dcache.LoadLockedReq_avg_mshr_miss_latency::total 82890.410959                       # average LoadLockedReq mshr miss latency
system.cpu1.dcache.StoreCondReq_hits::.cpu1.data         1020                       # number of StoreCondReq hits
system.cpu1.dcache.StoreCondReq_hits::total         1020                       # number of StoreCondReq hits
system.cpu1.dcache.StoreCondReq_misses::.cpu1.data          420                       # number of StoreCondReq misses
system.cpu1.dcache.StoreCondReq_misses::total          420                       # number of StoreCondReq misses
system.cpu1.dcache.StoreCondReq_miss_latency::.cpu1.data      3801500                       # number of StoreCondReq miss cycles
system.cpu1.dcache.StoreCondReq_miss_latency::total      3801500                       # number of StoreCondReq miss cycles
system.cpu1.dcache.StoreCondReq_accesses::.cpu1.data         1440                       # number of StoreCondReq accesses(hits+misses)
system.cpu1.dcache.StoreCondReq_accesses::total         1440                       # number of StoreCondReq accesses(hits+misses)
system.cpu1.dcache.StoreCondReq_miss_rate::.cpu1.data     0.291667                       # miss rate for StoreCondReq accesses
system.cpu1.dcache.StoreCondReq_miss_rate::total     0.291667                       # miss rate for StoreCondReq accesses
system.cpu1.dcache.StoreCondReq_avg_miss_latency::.cpu1.data  9051.190476                       # average StoreCondReq miss latency
system.cpu1.dcache.StoreCondReq_avg_miss_latency::total  9051.190476                       # average StoreCondReq miss latency
system.cpu1.dcache.StoreCondReq_mshr_misses::.cpu1.data          420                       # number of StoreCondReq MSHR misses
system.cpu1.dcache.StoreCondReq_mshr_misses::total          420                       # number of StoreCondReq MSHR misses
system.cpu1.dcache.StoreCondReq_mshr_miss_latency::.cpu1.data      3382500                       # number of StoreCondReq MSHR miss cycles
system.cpu1.dcache.StoreCondReq_mshr_miss_latency::total      3382500                       # number of StoreCondReq MSHR miss cycles
system.cpu1.dcache.StoreCondReq_mshr_miss_rate::.cpu1.data     0.291667                       # mshr miss rate for StoreCondReq accesses
system.cpu1.dcache.StoreCondReq_mshr_miss_rate::total     0.291667                       # mshr miss rate for StoreCondReq accesses
system.cpu1.dcache.StoreCondReq_avg_mshr_miss_latency::.cpu1.data  8053.571429                       # average StoreCondReq mshr miss latency
system.cpu1.dcache.StoreCondReq_avg_mshr_miss_latency::total  8053.571429                       # average StoreCondReq mshr miss latency
system.cpu1.dcache.StoreCondFailReq_miss_latency::.cpu1.data        33500                       # number of StoreCondFailReq miss cycles
system.cpu1.dcache.StoreCondFailReq_miss_latency::total        33500                       # number of StoreCondFailReq miss cycles
system.cpu1.dcache.StoreCondFailReq_avg_miss_latency::.cpu1.data          inf                       # average StoreCondFailReq miss latency
system.cpu1.dcache.StoreCondFailReq_avg_miss_latency::total          inf                       # average StoreCondFailReq miss latency
system.cpu1.dcache.StoreCondFailReq_mshr_miss_latency::.cpu1.data        32500                       # number of StoreCondFailReq MSHR miss cycles
system.cpu1.dcache.StoreCondFailReq_mshr_miss_latency::total        32500                       # number of StoreCondFailReq MSHR miss cycles
system.cpu1.dcache.StoreCondFailReq_avg_mshr_miss_latency::.cpu1.data          inf                       # average StoreCondFailReq mshr miss latency
system.cpu1.dcache.StoreCondFailReq_avg_mshr_miss_latency::total          inf                       # average StoreCondFailReq mshr miss latency
system.cpu1.dcache.SwapReq_hits::.cpu1.data          558                       # number of SwapReq hits
system.cpu1.dcache.SwapReq_hits::total            558                       # number of SwapReq hits
system.cpu1.dcache.SwapReq_misses::.cpu1.data          264                       # number of SwapReq misses
system.cpu1.dcache.SwapReq_misses::total          264                       # number of SwapReq misses
system.cpu1.dcache.SwapReq_miss_latency::.cpu1.data      1327000                       # number of SwapReq miss cycles
system.cpu1.dcache.SwapReq_miss_latency::total      1327000                       # number of SwapReq miss cycles
system.cpu1.dcache.SwapReq_accesses::.cpu1.data          822                       # number of SwapReq accesses(hits+misses)
system.cpu1.dcache.SwapReq_accesses::total          822                       # number of SwapReq accesses(hits+misses)
system.cpu1.dcache.SwapReq_miss_rate::.cpu1.data     0.321168                       # miss rate for SwapReq accesses
system.cpu1.dcache.SwapReq_miss_rate::total     0.321168                       # miss rate for SwapReq accesses
system.cpu1.dcache.SwapReq_avg_miss_latency::.cpu1.data  5026.515152                       # average SwapReq miss latency
system.cpu1.dcache.SwapReq_avg_miss_latency::total  5026.515152                       # average SwapReq miss latency
system.cpu1.dcache.SwapReq_mshr_hits::.cpu1.data            1                       # number of SwapReq MSHR hits
system.cpu1.dcache.SwapReq_mshr_hits::total            1                       # number of SwapReq MSHR hits
system.cpu1.dcache.SwapReq_mshr_misses::.cpu1.data          263                       # number of SwapReq MSHR misses
system.cpu1.dcache.SwapReq_mshr_misses::total          263                       # number of SwapReq MSHR misses
system.cpu1.dcache.SwapReq_mshr_miss_latency::.cpu1.data      1063000                       # number of SwapReq MSHR miss cycles
system.cpu1.dcache.SwapReq_mshr_miss_latency::total      1063000                       # number of SwapReq MSHR miss cycles
system.cpu1.dcache.SwapReq_mshr_miss_rate::.cpu1.data     0.319951                       # mshr miss rate for SwapReq accesses
system.cpu1.dcache.SwapReq_mshr_miss_rate::total     0.319951                       # mshr miss rate for SwapReq accesses
system.cpu1.dcache.SwapReq_avg_mshr_miss_latency::.cpu1.data  4041.825095                       # average SwapReq mshr miss latency
system.cpu1.dcache.SwapReq_avg_mshr_miss_latency::total  4041.825095                       # average SwapReq mshr miss latency
system.cpu1.dcache.tags.pwrStateResidencyTicks::UNDEFINED 1984089064000                       # Cumulative time (in ticks) in various power states
system.cpu1.dcache.tags.tagsinuse           31.821564                       # Cycle average of tags in use
system.cpu1.dcache.tags.total_refs          131490887                       # Total number of references to valid blocks.
system.cpu1.dcache.tags.sampled_refs         14483232                       # Sample count of references to valid blocks.
system.cpu1.dcache.tags.avg_refs             9.078836                       # Average number of references to valid blocks.
system.cpu1.dcache.tags.warmup_cycle                0                       # Cycle when the warmup percentage was hit.
system.cpu1.dcache.tags.occ_blocks::.cpu1.data    31.821564                       # Average occupied blocks per requestor
system.cpu1.dcache.tags.occ_percent::.cpu1.data     0.994424                       # Average percentage of cache occupancy
system.cpu1.dcache.tags.occ_percent::total     0.994424                       # Average percentage of cache occupancy
system.cpu1.dcache.tags.occ_task_id_blocks::1024           29                       # Occupied blocks per task id
system.cpu1.dcache.tags.age_task_id_blocks_1024::1           29                       # Occupied blocks per task id
system.cpu1.dcache.tags.occ_task_id_percent::1024     0.906250                       # Percentage of cache occupancy per task id
system.cpu1.dcache.tags.tag_accesses        338269627                       # Number of tag accesses
system.cpu1.dcache.tags.data_accesses       338269627                       # Number of data accesses
system.cpu_clk_domain.clock                       500                       # Clock period in ticks
system.tol2bus.pwrStateResidencyTicks::UNDEFINED 1984089064000                       # Cumulative time (in ticks) in various power states
system.tol2bus.trans_dist::ReadResp          67603769                       # Transaction distribution
system.tol2bus.trans_dist::WritebackDirty     10264692                       # Transaction distribution
system.tol2bus.trans_dist::WritebackClean     62814028                       # Transaction distribution
system.tol2bus.trans_dist::CleanEvict       203098944                       # Transaction distribution
system.tol2bus.trans_dist::HardPFReq        133516467                       # Transaction distribution
system.tol2bus.trans_dist::HardPFResp              13                       # Transaction distribution
system.tol2bus.trans_dist::UpgradeReq            2398                       # Transaction distribution
system.tol2bus.trans_dist::SCUpgradeReq           820                       # Transaction distribution
system.tol2bus.trans_dist::UpgradeResp           3218                       # Transaction distribution
system.tol2bus.trans_dist::SCUpgradeFailReq            1                       # Transaction distribution
system.tol2bus.trans_dist::UpgradeFailResp            1                       # Transaction distribution
system.tol2bus.trans_dist::ReadExReq           452121                       # Transaction distribution
system.tol2bus.trans_dist::ReadExResp          452121                       # Transaction distribution
system.tol2bus.trans_dist::ReadCleanReq         26454                       # Transaction distribution
system.tol2bus.trans_dist::ReadSharedReq     67577315                       # Transaction distribution
system.tol2bus.trans_dist::InvalidateReq            1                       # Transaction distribution
system.tol2bus.trans_dist::InvalidateResp            1                       # Transaction distribution
system.tol2bus.pkt_count_system.cpu0.icache.mem_side::system.l2.cpu_side        64080                       # Packet count per connected master and slave (bytes)
system.tol2bus.pkt_count_system.cpu0.dcache.mem_side::system.l2.cpu_side    160618385                       # Packet count per connected master and slave (bytes)
system.tol2bus.pkt_count_system.cpu1.icache.mem_side::system.l2.cpu_side        15282                       # Packet count per connected master and slave (bytes)
system.tol2bus.pkt_count_system.cpu1.dcache.mem_side::system.l2.cpu_side     43425344                       # Packet count per connected master and slave (bytes)
system.tol2bus.pkt_count::total             204123091                       # Packet count per connected master and slave (bytes)
system.tol2bus.pkt_size_system.cpu0.icache.mem_side::system.l2.cpu_side      2734080                       # Cumulative packet size per connected master and slave (bytes)
system.tol2bus.pkt_size_system.cpu0.dcache.mem_side::system.l2.cpu_side   6852430912                       # Cumulative packet size per connected master and slave (bytes)
system.tol2bus.pkt_size_system.cpu1.icache.mem_side::system.l2.cpu_side       652032                       # Cumulative packet size per connected master and slave (bytes)
system.tol2bus.pkt_size_system.cpu1.dcache.mem_side::system.l2.cpu_side   1852204160                       # Cumulative packet size per connected master and slave (bytes)
system.tol2bus.pkt_size::total             8708021184                       # Cumulative packet size per connected master and slave (bytes)
system.tol2bus.snoops                       341689286                       # Total snoops (count)
system.tol2bus.snoopTraffic                 324595584                       # Total snoop traffic (bytes)
system.tol2bus.snoop_fanout::samples        409767859                       # Request fanout histogram
system.tol2bus.snoop_fanout::mean            0.150899                       # Request fanout histogram
system.tol2bus.snoop_fanout::stdev           0.358593                       # Request fanout histogram
system.tol2bus.snoop_fanout::underflows             0      0.00%      0.00% # Request fanout histogram
system.tol2bus.snoop_fanout::0              348028822     84.93%     84.93% # Request fanout histogram
system.tol2bus.snoop_fanout::1               61644653     15.04%     99.98% # Request fanout histogram
system.tol2bus.snoop_fanout::2                  94384      0.02%    100.00% # Request fanout histogram
system.tol2bus.snoop_fanout::3                      0      0.00%    100.00% # Request fanout histogram
system.tol2bus.snoop_fanout::4                      0      0.00%    100.00% # Request fanout histogram
system.tol2bus.snoop_fanout::5                      0      0.00%    100.00% # Request fanout histogram
system.tol2bus.snoop_fanout::6                      0      0.00%    100.00% # Request fanout histogram
system.tol2bus.snoop_fanout::7                      0      0.00%    100.00% # Request fanout histogram
system.tol2bus.snoop_fanout::8                      0      0.00%    100.00% # Request fanout histogram
system.tol2bus.snoop_fanout::overflows              0      0.00%    100.00% # Request fanout histogram
system.tol2bus.snoop_fanout::min_value              0                       # Request fanout histogram
system.tol2bus.snoop_fanout::max_value              2                       # Request fanout histogram
system.tol2bus.snoop_fanout::total          409767859                       # Request fanout histogram
system.tol2bus.reqLayer0.occupancy       136233508514                       # Layer occupancy (ticks)
system.tol2bus.reqLayer0.utilization              6.9                       # Layer utilization (%)
system.tol2bus.respLayer1.occupancy       80329151429                       # Layer occupancy (ticks)
system.tol2bus.respLayer1.utilization             4.0                       # Layer utilization (%)
system.tol2bus.respLayer0.occupancy          32048982                       # Layer occupancy (ticks)
system.tol2bus.respLayer0.utilization             0.0                       # Layer utilization (%)
system.tol2bus.respLayer3.occupancy       21730250744                       # Layer occupancy (ticks)
system.tol2bus.respLayer3.utilization             1.1                       # Layer utilization (%)
system.tol2bus.respLayer2.occupancy           7644493                       # Layer occupancy (ticks)
system.tol2bus.respLayer2.utilization             0.0                       # Layer utilization (%)
system.tol2bus.snoopLayer0.occupancy            19501                       # Layer occupancy (ticks)
system.tol2bus.snoopLayer0.utilization            0.0                       # Layer utilization (%)

---------- End Simulation Statistics   ----------
