Redirecting stdout to /vol1/msoyturk/gem5/results/sssp/slashdot.el/prefetch_TaggedPrefetcher_BRRIPRP/output.txt
Redirecting stderr to /vol1/msoyturk/gem5/results/sssp/slashdot.el/prefetch_TaggedPrefetcher_BRRIPRP/error.txt
gem5 Simulator System.  http://gem5.org
gem5 is copyrighted software; use the --copyright option for details.

gem5 compiled Apr 26 2020 13:32:47
gem5 started May  2 2020 04:08:11
gem5 executing on draco, pid 32562
command line: /vol1/msoyturk/gem5/build/RISCV/gem5.fast -re --outdir=/vol1/msoyturk/gem5/results/sssp/slashdot.el/prefetch_TaggedPrefetcher_BRRIPRP --stdout-file=output.txt --stderr-file=error.txt /vol1/msoyturk/gem5/configs/example/my_se.py -c /vol1/msoyturk/gem5/gapbs/sssp -o '-f /vol1/msoyturk/gem5/gapbs/test/graphs/slashdot.el' --caches --l1d_size=2kB --l1i_size=2kB --cpu-type=DerivO3CPU -n 4 --mem-size=512MB --l2cache --l2_size=4kB --l2-hwp-type=TaggedPrefetcher --l2-replacement-policy=BRRIPRP --l1i_mshrs=4 --l1d_mshrs=4 --l2_mshrs=20 --l1i_write_buffers=8 --l1d_write_buffers=8 --l2_write_buffers=8

info: Standard input is not a terminal, disabling listeners.
Warning: l2-hwp-type is set ( TaggedPrefetcher ), but the current l2 has a default Hardware Prefetcher of type <class 'm5.params.NullSimObject'> , using the specified by the flag option.
Global frequency set at 1000000000000 ticks per second
**** REAL SIMULATION ****
Read Time:           0.93432
Build Time:          0.18810
Graph has 77360 nodes and 828161 directed edges for degree: 10
    0          1     0.02803
   12          1     0.10607
   15          1     0.08020
   16          1     0.01870
   20          2     1.23777
   21         13     0.34502
   22          9     0.17748
   23         15     0.29768
   24         15     0.83833
   25         40     0.61024
   26         42     1.04433
   27         60     0.99933
   28         79     0.89244
   29         97     1.08340
   30        131     1.33740
   31        174     1.45910
   32        217     1.05887
   33        306     1.30928
   34        387     1.71297
   35        415     1.44701
   36        553     1.47749
   37        633     1.62250
   38        671     1.36501
   39        773     1.39091
   40        787     1.14860
   41        831     1.21266
   42        892     0.97438
   43        909     0.89950
   44        909     0.73305
   45        885     0.70643
   46        946     0.64085
   47        922     0.56810
   48        909     0.59744
   49        946     0.50294
   50        960     0.52341
   51        959     0.50742
   52        909     0.45590
   53        960     0.40606
   54        921     0.36922
   55        860     0.31406
   56        890     0.34757
   57        913     0.32431
   58        875     0.31114
   59        865     0.26559
   60        841     0.27944
   61        820     0.22838
   62        874     0.24632
   63        833     0.22120
   64        849     0.22736
   65        822     0.25596
   66        829     0.19459
   67        833     0.20021
   68        770     0.19534
   69        780     0.16180
   70        871     0.19562
   71        789     0.16569
   72        753     0.14085
   73        796     0.16524
   74        763     0.15797
   75        724     0.16134
   76        703     0.12899
   77        697     0.12787
   78        738     0.15883
   79        732     0.13949
   80        750     0.14733
   81        679     0.11487
   82        681     0.11479
   83        665     0.11134
   84        675     0.11584
   85        719     0.11478
   86        663     0.09556
   87        651     0.10205
   88        650     0.09876
   89        672     0.10107
   90        667     0.09902
   91        670     0.11034
   92        622     0.08981
   93        592     0.08868
   94        614     0.09157
   95        621     0.08785
   96        635     0.10253
   97        590     0.08976
   98        570     0.08916
   99        612     0.09290
  100        552     0.07840
  101        593     0.07667
  102        589     0.08562
  103        575     0.09925
  104        596     0.08050
  105        600     0.08730
  106        548     0.07176
  107        553     0.07811
  108        571     0.08057
  109        583     0.08364
  110        578     0.07680
  111        554     0.07496
  112        511     0.06727
  113        565     0.06942
  114        533     0.07180
  115        536     0.06559
  116        535     0.06596
  117        541     0.06900
  118        572     0.08087
  119        501     0.07294
  120        553     0.06717
  121        502     0.05829
  122        535     0.07878
  123        534     0.06206
  124        493     0.07940
  125        503     0.06401
  126        510     0.06212
  127        507     0.06373
  128        504     0.05760
  129        486     0.05705
  130        496     0.07027
  131        522     0.06749
  132        527     0.05860
  133        528     0.06569
  134        514     0.07496
  135        514     0.05883
  136        474     0.04869
  137        508     0.06615
  138        501     0.06576
  139        488     0.06020
  140        497     0.06677
  141        479     0.05106
  142        503     0.05114
  143        451     0.05634
  144        460     0.06182
  145        480     0.05153
  146        419     0.05216
  147        489     0.05207
  148        460     0.05902
  149        454     0.05310
  150        476     0.05752
  151        449     0.05314
  152        449     0.05643
  153        442     0.05639
  154        478     0.04620
  155        433     0.04872
  156        474     0.04457
  157        475     0.05116
  158        468     0.05863
  159        432     0.04688
  160        470     0.06041
  161        445     0.04653
  162        433     0.05004
  163        443     0.05543
  164        402     0.04548
  165        428     0.05015
  166        417     0.04605
  167        446     0.06610
  168        410     0.04531
  169        411     0.04883
  170        427     0.04885
  171        424     0.05308
  172        411     0.04000
  173        426     0.04052
  174        408     0.03974
  175        421     0.04410
  176        389     0.04002
  177        412     0.04859
  178        388     0.04527
  179        393     0.04762
  180        404     0.04411
  181        405     0.04573
  182        413     0.04677
  183        410     0.04317
  184        414     0.04413
  185        398     0.03740
  186        424     0.04178
  187        409     0.04154
  188        369     0.03264
  189        370     0.04074
  190        376     0.04354
  191        427     0.05719
  192        373     0.04595
  193        363     0.03831
  194        409     0.03607
  195        388     0.04469
  196        370     0.03444
  197        398     0.05094
  198        383     0.03871
  199        410     0.03913
  200        387     0.03941
  201        369     0.03424
  202        374     0.04312
  203        385     0.03765
  204        362     0.03970
  205        382     0.05085
  206        341     0.03453
  207        384     0.04652
  208        382     0.04234
  209        368     0.03767
  210        385     0.04510
  211        386     0.04195
  212        386     0.04954
  213        372     0.03571
  214        383     0.03882
  215        350     0.03187
  216        357     0.03499
  217        365     0.03895
  218        397     0.04033
  219        371     0.05290
  220        359     0.04045
  221        340     0.02967
  222        305     0.03592
  223        351     0.03611
  224        317     0.03824
  225        382     0.04363
  226        367     0.03792
  227        363     0.03422
  228        359     0.04171
  229        351     0.03213
  230        339     0.03558
  231        339     0.03724
  232        331     0.03841
  233        345     0.04543
  234        342     0.03532
  235        332     0.03115
  236        315     0.03217
  237        323     0.03913
  238        344     0.03106
  239        351     0.03161
  240        325     0.02790
  241        319     0.03292
  242        324     0.03277
  243        331     0.03128
  244        382     0.04088
  245        341     0.03338
  246        305     0.03481
  247        313     0.03646
  248        315     0.03618
  249        337     0.03656
  250        340     0.03870
  251        313     0.03578
  252        367     0.03682
  253        340     0.03517
  254        351     0.03649
  255        322     0.04057
  256        344     0.03791
  257        324     0.03907
  258        345     0.03328
  259        305     0.03714
  260        354     0.03452
  261        357     0.03767
  262        313     0.03686
  263        344     0.03578
  264        314     0.04012
  265        289     0.02839
  266        329     0.03550
  267        327     0.03111
  268        317     0.03544
  269        350     0.03234
  270        296     0.02947
  271        333     0.04100
  272        328     0.03310
  273        295     0.02552
  274        314     0.03356
  275        284     0.02625
  276        315     0.03373
  277        312     0.03290
  278        301     0.03684
  279        302     0.02981
  280        273     0.02672
  281        292     0.03473
  282        244     0.02191
  283        284     0.03495
  284        250     0.02789
  285        262     0.02794
  286        232     0.02899
  287        209     0.02724
  288        205     0.02270
  289        215     0.03038
  290        197     0.02721
  291        149     0.02508
  292        156     0.02252
  293        122     0.02043
  294        103     0.01445
  295        104     0.01553
  296        100     0.01828
  297        109     0.02031
  298         78     0.01724
  299         74     0.01930
  300         78     0.01490
  301         66     0.02224
  302         86     0.01899
  303         60     0.01460
  304         66     0.02030
  305         80     0.02174
  306         79     0.02120
  307         57     0.01792
  308         68     0.01787
  309         48     0.01303
  310         58     0.01892
  311         56     0.02005
  312         46     0.01405
  313         66     0.01639
  314         50     0.01632
  315         35     0.01110
  316         37     0.02190
  317         41     0.01639
  318         38     0.01486
  319         38     0.01187
  320         47     0.01695
  321         35     0.01145
  322         33     0.01393
  323         37     0.01227
  324         39     0.01759
  325         37     0.01366
  326         31     0.01509
  327         26     0.01696
  328         23     0.01077
  329         31     0.01388
  330         34     0.01307
  331         26     0.01045
  332         17     0.00855
  333         18     0.00935
  334         23     0.00950
  335         28     0.01018
  336         30     0.01038
  337         21     0.01033
  338         31     0.01462
  339         24     0.00912
  340         25     0.01016
  341         15     0.00876
  342         23     0.01886
  343         19     0.01122
  344         26     0.01405
  345         20     0.01089
  346         30     0.01370
  347         14     0.00827
  348         12     0.00976
  349         18     0.00898
  350         17     0.01039
  351         21     0.00867
  352         23     0.00962
  353         28     0.00966
  354         17     0.00871
  355         17     0.00834
  356         14     0.00776
  357         14     0.01131
  358         21     0.01138
  359         24     0.01193
  360         22     0.01325
  361         14     0.00870
  362         19     0.00882
  363         19     0.01065
  364         15     0.01115
  365         14     0.01075
  366         23     0.01337
  367         25     0.01586
  368         17     0.00847
  369         14     0.00762
  370         20     0.00860
  371         15     0.01183
  372         17     0.01075
  373         18     0.01358
  374         10     0.00781
  375         12     0.00798
  376         15     0.00810
  377         12     0.00784
  378         17     0.01253
  379         21     0.01419
  380         12     0.00753
  381         13     0.00754
  382         12     0.00912
  383          9     0.00958
  384          7     0.00719
  385         11     0.00722
  386         10     0.00778
  387          8     0.01343
  388         11     0.00850
  389          7     0.00882
  390          5     0.00669
  391         12     0.01241
  392         12     0.00762
  393          9     0.01242
  394         13     0.00798
  395         10     0.01100
  396         11     0.00957
  397         13     0.01184
  398         13     0.00985
  399         15     0.00910
  400          5     0.00596
  401         12     0.00822
  402         11     0.01043
  403         10     0.00766
  404          8     0.00750
  405          7     0.01060
  406         18     0.01670
  407         12     0.00837
  408         15     0.00803
  409          9     0.00734
  410          7     0.00880
  411         10     0.00745
  412          6     0.00706
  413          6     0.00680
  414         10     0.01139
  415          9     0.00740
  416          8     0.00667
  417          7     0.00741
  418          5     0.00684
  419         11     0.01008
  420          9     0.00689
  421         11     0.00814
  422          7     0.00678
  423         12     0.01180
  424         14     0.00812
  425          9     0.00746
  426          9     0.00714
  427          9     0.00909
  428         11     0.00959
  429          8     0.00782
  430          6     0.00695
  431          5     0.00625
  432         12     0.01155
  433          2     0.00565
  434          5     0.00644
  435          7     0.00681
  436          8     0.00727
  437          5     0.00718
  438          9     0.01076
  439          8     0.00694
  440          5     0.01130
  441          9     0.00769
  442          6     0.00691
  443          3     0.00640
  444         11     0.00745
  445          9     0.00668
  446          7     0.01211
  447          2     0.00615
  448          8     0.00959
  449          3     0.01084
  450          6     0.00980
  451          7     0.00681
  452         10     0.00781
  453          4     0.00620
  454          5     0.00873
  455         11     0.00766
  456          5     0.00643
  457          5     0.00859
  458          6     0.00942
  459          8     0.01385
  460          4     0.00568
  461          9     0.00722
  462          3     0.00695
  463          9     0.00717
  464          5     0.00861
  465          3     0.00639
  466          2     0.00610
  467          7     0.00901
  468          3     0.00834
  469          5     0.00659
  470          7     0.00652
  471          6     0.00928
  472          7     0.00722
  473          2     0.00588
  474          3     0.00574
  475          3     0.00905
  476          3     0.00637
  477          5     0.00689
  478          6     0.01129
  479          1     0.00604
  480          7     0.00664
  481          3     0.00949
  482          2     0.00582
  483          4     0.00603
  484          3     0.00582
  485          2     0.00609
  486          1     0.00566
  487          3     0.00608
  488          4     0.00627
  489          4     0.00646
  490          3     0.00633
  491          4     0.00590
  492          7     0.00673
  493          4     0.01309
  494          2     0.00598
  495          3     0.00562
  496          1     0.00553
  497          4     0.00662
  498          1     0.00609
  499          2     0.00609
  500          4     0.00640
  501          7     0.00656
  502          7     0.00774
  503          4     0.02323
  504          5     0.00656
  505          3     0.00603
  506          3     0.00601
  507          2     0.00560
  509          6     0.01027
  511          2     0.00595
  512          1     0.00532
  513          1     0.00551
  515          5     0.01040
  517          5     0.00623
  518          2     0.00605
  520          4     0.00585
  521          4     0.00846
  522          1     0.00562
  523          2     0.00586
  524          3     0.00579
  525          1     0.00573
  526          5     0.00837
  528          4     0.00665
  529          1     0.00544
  530          1     0.00596
  531          2     0.00584
  532          1     0.00527
  533          4     0.00642
  534          2     0.00612
  536          1     0.00550
  537          5     0.00650
  538          1     0.00547
  539          1     0.00572
  540          1     0.00579
  542          1     0.00550
  544          2     0.00504
  546          1     0.00575
  547          1     0.00561
  549          1     0.00553
  550          2     0.00585
  551          1     0.00562
  552          2     0.00954
  553          1     0.00563
  554          1     0.00594
  555          2     0.00570
  560          1     0.00566
  562          1     0.00542
  563          1     0.00558
  565          1     0.00571
  566          1     0.00536
  567          2     0.00538
  570          1     0.00568
  571          1     0.00572
  572          1     0.00572
  573          1     0.00559
  575          1     0.00545
  576          1     0.00534
  577          2     0.00595
  580          1     0.00560
  582          2     0.00533
  583          3     0.00758
  584          1     0.00594
  586          2     0.00572
  587          1     0.00579
  590          2     0.00568
  592          1     0.00560
  593          1     0.00575
  594          1     0.00530
  597          1     0.00585
  598          1     0.00571
  600          1     0.00566
  601          2     0.00839
  603          2     0.00541
  605          1     0.00554
  607          1     0.00564
  608          1     0.00538
  611          1     0.00545
  613          1     0.00564
  615          2     0.00826
  618          2     0.00570
  622          1     0.00615
  633          1     0.00528
  635          1     0.00571
  639          1     0.00517
  640          1     0.00555
  643          1     0.00541
  645          1     0.00572
  646          1     0.00563
  648          2     0.00549
  654          1     0.00606
  657          1     0.00931
  662          1     0.00593
  663          1     0.00536
  664          1     0.00555
  674          1     0.00571
  679          1     0.00588
  682          2     0.00900
  687          1     0.00604
  693          1     0.00550
  699          1     0.00559
  703          1     0.00587
  711          2     0.00569
  714          1     0.00578
  725          1     0.00596
  746          1     0.00559
  750          1     0.00626
  819          1     0.00604
  842          1     0.00602
  885          1     0.00536
took 593 iterations
Trial Time:          0.06128
    0          1     0.03510
   21          1     0.03259
   23          1     0.01512
   40          1     0.12837
   41          1     0.00914
   42          2     0.05839
   43          1     0.15616
   44          3     0.17718
   45          4     0.07470
   46          3     0.10090
   47          5     0.41037
   48          8     0.42375
   49         12     0.32833
   50          9     0.24388
   51         13     0.49234
   52         23     0.59550
   53         36     0.95508
   54         49     1.25570
   55         49     0.85046
   56         77     0.80761
   57         98     0.96220
   58        171     1.65263
   59        195     1.24749
   60        254     1.33205
   61        337     1.74481
   62        423     1.61462
   63        487     1.53329
   64        615     1.51254
   65        671     1.46212
   66        725     1.29984
   67        779     1.16650
   68        873     1.04329
   69        870     1.02032
   70        815     0.87654
   71        906     0.99996
   72        914     0.68798
   73        930     0.66734
   74        932     0.64079
   75        936     0.58063
   76        879     0.53719
   77        939     0.49984
   78        942     0.50613
   79        974     0.45542
   80        923     0.36104
   81        912     0.35150
   82        902     0.36789
   83        877     0.34261
   84        953     0.38215
   85        945     0.32904
   86        860     0.28502
   87        828     0.23880
   88        819     0.26861
   89        842     0.23041
   90        842     0.23305
   91        830     0.24200
   92        844     0.22978
   93        802     0.20996
   94        785     0.18643
   95        759     0.18235
   96        787     0.20591
   97        830     0.18907
   98        826     0.16950
   99        827     0.18074
  100        782     0.16020
  101        780     0.15788
  102        751     0.14935
  103        763     0.15645
  104        754     0.13557
  105        709     0.14688
  106        680     0.12462
  107        751     0.13422
  108        677     0.12608
  109        715     0.11528
  110        693     0.12211
  111        672     0.10427
  112        714     0.13442
  113        673     0.10310
  114        661     0.12923
  115        662     0.10825
  116        614     0.09839
  117        659     0.09651
  118        679     0.09512
  119        624     0.09742
  120        624     0.10164
  121        605     0.09121
  122        626     0.09771
  123        624     0.09327
  124        644     0.10241
  125        598     0.09329
  126        581     0.09360
  127        613     0.09102
  128        591     0.08282
  129        599     0.07994
  130        563     0.07821
  131        559     0.07310
  132        573     0.07826
  133        580     0.09399
  134        602     0.09080
  135        575     0.07375
  136        525     0.06721
  137        545     0.06686
  138        539     0.07042
  139        518     0.07008
  140        541     0.06880
  141        574     0.07626
  142        584     0.07290
  143        557     0.07254
  144        546     0.07585
  145        548     0.07343
  146        522     0.06102
  147        528     0.06821
  148        519     0.06454
  149        522     0.06405
  150        517     0.06225
  151        512     0.06280
  152        551     0.08377
  153        511     0.06657
  154        504     0.06074
  155        479     0.05741
  156        544     0.07105
  157        507     0.06051
  158        507     0.05921
  159        524     0.07728
  160        451     0.05328
  161        503     0.07030
  162        542     0.06552
  163        478     0.05602
  164        513     0.06185
  165        523     0.06228
  166        458     0.05211
  167        490     0.05709
  168        483     0.05640
  169        431     0.05840
  170        475     0.05553
  171        491     0.05273
  172        485     0.05894
  173        533     0.06511
  174        468     0.05142
  175        461     0.04681
  176        488     0.06419
  177        477     0.05192
  178        456     0.04636
  179        482     0.06100
  180        417     0.05053
  181        492     0.05714
  182        460     0.05908
  183        465     0.05609
  184        450     0.04503
  185        438     0.04605
  186        442     0.05085
  187        435     0.05000
  188        430     0.05036
  189        428     0.05921
  190        459     0.05085
  191        474     0.05332
  192        427     0.04794
  193        422     0.04417
  194        434     0.05717
  195        377     0.04569
  196        439     0.04399
  197        430     0.04157
  198        381     0.04061
  199        455     0.04938
  200        389     0.05030
  201        410     0.04145
  202        378     0.03975
  203        423     0.04514
  204        408     0.04541
  205        406     0.04942
  206        413     0.04399
  207        403     0.04164
  208        426     0.04920
  209        445     0.04967
  210        417     0.04580
  211        389     0.03866
  212        370     0.04874
  213        391     0.03854
  214        420     0.04518
  215        404     0.03828
  216        411     0.03804
  217        369     0.04979
  218        385     0.04428
  219        388     0.04175
  220        395     0.04214
  221        407     0.04885
  222        403     0.04056
  223        398     0.04212
  224        386     0.04625
  225        390     0.04318
  226        386     0.04303
  227        366     0.03642
  228        413     0.04426
  229        378     0.03959
  230        408     0.04883
  231        360     0.04106
  232        350     0.03334
  233        332     0.03184
  234        395     0.04122
  235        337     0.03317
  236        354     0.03905
  237        387     0.05358
  238        413     0.04354
  239        378     0.03945
  240        346     0.03231
  241        379     0.03866
  242        370     0.04242
  243        361     0.04201
  244        363     0.04059
  245        360     0.03801
  246        346     0.03585
  247        345     0.03287
  248        332     0.03170
  249        325     0.03441
  250        372     0.04208
  251        359     0.03461
  252        365     0.05344
  253        326     0.03594
  254        399     0.03549
  255        378     0.03705
  256        341     0.03342
  257        356     0.03309
  258        338     0.03310
  259        352     0.03662
  260        348     0.03508
  261        344     0.03497
  262        324     0.03243
  263        350     0.03734
  264        310     0.03782
  265        337     0.03644
  266        352     0.03274
  267        293     0.02831
  268        336     0.03445
  269        346     0.03406
  270        338     0.02792
  271        325     0.03236
  272        352     0.03569
  273        350     0.04001
  274        337     0.03200
  275        341     0.03883
  276        311     0.03309
  277        326     0.03496
  278        338     0.03630
  279        325     0.03677
  280        324     0.03683
  281        326     0.03015
  282        353     0.04307
  283        329     0.04024
  284        311     0.03596
  285        345     0.03702
  286        345     0.03945
  287        331     0.04020
  288        311     0.03341
  289        309     0.03798
  290        332     0.03596
  291        328     0.03952
  292        346     0.03739
  293        342     0.03329
  294        332     0.03209
  295        320     0.03347
  296        341     0.03972
  297        290     0.02901
  298        309     0.02999
  299        296     0.03011
  300        318     0.02860
  301        321     0.03456
  302        314     0.04458
  303        342     0.03692
  304        292     0.02913
  305        311     0.03559
  306        286     0.03437
  307        255     0.03120
  308        271     0.02866
  309        285     0.03065
  310        258     0.03099
  311        259     0.03016
  312        230     0.02676
  313        263     0.03160
  314        234     0.02324
  315        210     0.02496
  316        193     0.03118
  317        200     0.02592
  318        132     0.02263
  319        157     0.02965
  320        155     0.02130
  321        119     0.01690
  322        112     0.02009
  323        113     0.02091
  324        111     0.01765
  325         96     0.01877
  326         90     0.01560
  327         80     0.01394
  328         90     0.01509
  329         61     0.01821
  330         77     0.01887
  331         60     0.02130
  332         73     0.01621
  333         61     0.01868
  334         49     0.01587
  335         63     0.02203
  336         60     0.02065
  337         55     0.01322
  338         50     0.01461
  339         61     0.01752
  340         51     0.01569
  341         62     0.01802
  342         39     0.01996
  343         32     0.01334
  344         30     0.01801
  345         37     0.01446
  346         42     0.01427
  347         37     0.01148
  348         37     0.01191
  349         40     0.01747
  350         42     0.03104
  351         36     0.01746
  352         47     0.01486
  353         31     0.01696
  354         21     0.01647
  355         28     0.01033
  356         23     0.01392
  357         26     0.01267
  358         33     0.01486
  359         32     0.01584
  360         31     0.01511
  361         28     0.00998
  362         23     0.00956
  363         29     0.01038
  364         22     0.01212
  365         26     0.01508
  366         22     0.00937
  367         19     0.00886
  368         18     0.00910
  369         21     0.01318
  370         24     0.01445
  371         29     0.01038
  372         21     0.00893
  373         17     0.00869
  374         28     0.01020
  375         16     0.01119
  376         19     0.00905
  377         18     0.00987
  378         18     0.01155
  379         22     0.00914
  380         16     0.01254
  381         25     0.01877
  382         18     0.01087
  383         15     0.00812
  384         17     0.00839
  385         13     0.00785
  386         17     0.00867
  387         25     0.01078
  388         23     0.01220
  389         15     0.00804
  390         24     0.01510
  391         16     0.00902
  392         18     0.01317
  393         16     0.01134
  394         19     0.01508
  395         12     0.01057
  396         21     0.01007
  397         21     0.01018
  398         14     0.00986
  399         15     0.01060
  400         22     0.00987
  401         15     0.00816
  402         15     0.01198
  403          7     0.00918
  404         13     0.01042
  405         15     0.00823
  406         13     0.01316
  407         11     0.00807
  408         13     0.00904
  409         10     0.00736
  410         17     0.00870
  411          9     0.00749
  412         14     0.00868
  413         12     0.01330
  414         12     0.00794
  415          9     0.00756
  416         15     0.00868
  417          7     0.00660
  418          6     0.00883
  419          8     0.01332
  420         14     0.01158
  421          6     0.00763
  422          7     0.00950
  423         11     0.01083
  424         10     0.00728
  425         16     0.00853
  426         14     0.00830
  427         13     0.00887
  428         11     0.01013
  429          8     0.00932
  430         12     0.01096
  431         12     0.01560
  432         12     0.00986
  433         11     0.00825
  434         11     0.01137
  435         10     0.01137
  436         10     0.00949
  437         11     0.01031
  438         11     0.00768
  439          9     0.00791
  440          6     0.00935
  441         10     0.00922
  442          7     0.00659
  443          7     0.00682
  444         12     0.00794
  445          8     0.00661
  446          6     0.00663
  447          8     0.01112
  448          2     0.00711
  449         13     0.00827
  450          7     0.00720
  451          7     0.00759
  452         11     0.01003
  453         12     0.00734
  454         17     0.00856
  455          7     0.00709
  456          4     0.00628
  457         11     0.01109
  458          5     0.00663
  459          9     0.00713
  460          9     0.00942
  461          7     0.00811
  462          4     0.00611
  463          7     0.00806
  464          7     0.00979
  465          8     0.00730
  466          7     0.01052
  467          9     0.01120
  468          2     0.00588
  469          3     0.00626
  470          6     0.00658
  471          7     0.00665
  472          8     0.00709
  473          9     0.00746
  474          3     0.00639
  475          2     0.00609
  476          7     0.00822
  477          7     0.00938
  478          4     0.00643
  479         13     0.00795
  480          4     0.00857
  481         10     0.01059
  482          6     0.00691
  483         10     0.00744
  484          1     0.00594
  485          9     0.01003
  486          7     0.00686
  487          8     0.01358
  488          5     0.00662
  489          5     0.00673
  490          6     0.00653
  491          4     0.00633
  492          5     0.00874
  493          3     0.00944
  494          7     0.01294
  495          2     0.00583
  496          6     0.01011
  497          3     0.00601
  498          6     0.00703
  499          6     0.00932
  500          3     0.00620
  501          6     0.01167
  502          6     0.00669
  503          1     0.00768
  504          4     0.00639
  505          4     0.00632
  506          4     0.00602
  507          3     0.00624
  508          2     0.00559
  509          4     0.00649
  510          8     0.01214
  511          2     0.00586
  512          2     0.00649
  513          3     0.01023
  515          5     0.00653
  516          4     0.00636
  517          4     0.00671
  518          5     0.00684
  519          1     0.00598
  520          7     0.00677
  521          4     0.00589
  522          4     0.00643
  523          2     0.00579
  524          5     0.00643
  525          5     0.00680
  526          1     0.00583
  527          5     0.00953
  528          4     0.00964
  529          1     0.00537
  530          4     0.00575
  532          2     0.00610
  533          4     0.00626
  534          2     0.00552
  535          4     0.00636
  536          3     0.00618
  537          2     0.00538
  538          3     0.00597
  539          4     0.00599
  540          1     0.00562
  541          2     0.00538
  542          1     0.00545
  543          4     0.00563
  544          2     0.01065
  545          4     0.01044
  546          3     0.00595
  548          4     0.00615
  549          1     0.00542
  550          3     0.00714
  551          3     0.00839
  552          3     0.00589
  553          3     0.00594
  554          3     0.00585
  555          1     0.00522
  556          2     0.00597
  557          2     0.00578
  558          1     0.00578
  559          1     0.00536
  561          3     0.00576
  562          3     0.00588
  563          1     0.00586
  564          1     0.00547
  565          3     0.00556
  566          2     0.00589
  567          1     0.00535
  568          1     0.00604
  569          2     0.00585
  570          2     0.00601
  571          1     0.00555
  574          3     0.00543
  576          1     0.00598
  578          1     0.00540
  581          1     0.00501
  582          1     0.00573
  584          1     0.00793
  585          1     0.00577
  586          1     0.00608
  587          1     0.00664
  588          1     0.00631
  589          1     0.00591
  591          1     0.00613
  593          4     0.00660
  594          1     0.00642
  598          1     0.00619
  599          2     0.00625
  601          1     0.00654
  603          1     0.00622
  604          1     0.00609
  606          1     0.00614
  607          1     0.00615
  608          1     0.00577
  609          1     0.00585
  611          4     0.00987
  617          2     0.00605
  619          2     0.00659
  620          1     0.00598
  622          4     0.00596
  623          2     0.00962
  624          1     0.00599
  627          1     0.00570
  629          1     0.00614
  631          2     0.00579
  634          2     0.00601
  638          1     0.00623
  639          1     0.00553
  641          1     0.00584
  642          1     0.00861
  645          1     0.00571
  651          1     0.00578
  656          1     0.00586
  657          1     0.00553
  663          1     0.00618
  664          1     0.00569
  665          1     0.00576
  668          1     0.00562
  671          1     0.00576
  672          1     0.00566
  675          1     0.00573
  678          1     0.00582
  681          1     0.00565
  683          1     0.01025
  688          1     0.00615
  692          1     0.00573
  699          1     0.00581
  700          1     0.00904
  703          1     0.00547
  705          1     0.00583
  708          1     0.00592
  713          1     0.00579
  728          1     0.00571
  733          1     0.00604
  737          1     0.00612
  743          1     0.00543
  746          2     0.00597
  747          1     0.00605
  773          1     0.00572
  775          1     0.00617
  847          1     0.00609
  868          1     0.00605
  903          1     0.00539
took 602 iterations
Trial Time:          0.06153
    0          1     0.02237
  138          1     0.14579
  139          2     0.02399
  141          1     0.03125
  142          1     0.03042
  145          1     0.00591
  146          2     0.02111
  147          2     0.01403
  148          1     0.03537
  151          1     0.01284
  152          2     0.26637
  153          6     0.15618
  154          7     0.57862
  155         15     0.31057
  156         17     0.33025
  157         22     0.52392
  158         27     0.77877
  159         39     1.01427
  160         66     0.95910
  161         79     1.00268
  162        115     1.01741
  163        125     1.27970
  164        186     1.35922
  165        201     1.57049
  166        295     1.42781
  167        399     1.74189
  168        434     1.21965
  169        519     1.68422
  170        593     1.49086
  171        665     1.39309
  172        731     1.34082
  173        827     1.26132
  174        805     1.02127
  175        887     0.99902
  176        886     0.92328
  177        934     0.81354
  178        935     0.78086
  179        937     0.73450
  180        870     0.53686
  181        936     0.53845
  182        964     0.59460
  183        909     0.52524
  184        916     0.42455
  185        934     0.44065
  186        873     0.36934
  187        957     0.43909
  188        865     0.33158
  189        977     0.35595
  190        902     0.33745
  191        890     0.28462
  192        816     0.27169
  193        860     0.27352
  194        884     0.27797
  195        871     0.23375
  196        830     0.21070
  197        883     0.26317
  198        852     0.22163
  199        844     0.20164
  200        855     0.19312
  201        755     0.16567
  202        764     0.15720
  203        837     0.18254
  204        785     0.17823
  205        773     0.17687
  206        827     0.16716
  207        783     0.15868
  208        721     0.13465
  209        732     0.14905
  210        726     0.13974
  211        728     0.12679
  212        719     0.13864
  213        716     0.11146
  214        688     0.13627
  215        703     0.11724
  216        712     0.12495
  217        651     0.10620
  218        653     0.10835
  219        693     0.11696
  220        690     0.12505
  221        664     0.11876
  222        634     0.09932
  223        634     0.08614
  224        645     0.12209
  225        627     0.08790
  226        660     0.09709
  227        608     0.10232
  228        624     0.09958
  229        663     0.09992
  230        597     0.08283
  231        619     0.10822
  232        566     0.08005
  233        601     0.08755
  234        565     0.07664
  235        549     0.06918
  236        543     0.07344
  237        610     0.08179
  238        557     0.08540
  239        556     0.07621
  240        572     0.06874
  241        533     0.08120
  242        557     0.07594
  243        553     0.08172
  244        529     0.06606
  245        563     0.07474
  246        573     0.09004
  247        528     0.06441
  248        507     0.07250
  249        535     0.08585
  250        529     0.06368
  251        551     0.07526
  252        546     0.06809
  253        532     0.07857
  254        510     0.07248
  255        549     0.06482
  256        500     0.06111
  257        537     0.06483
  258        539     0.07222
  259        516     0.06849
  260        545     0.05808
  261        518     0.06460
  262        511     0.07236
  263        517     0.06486
  264        455     0.05631
  265        537     0.06603
  266        492     0.05593
  267        488     0.06021
  268        497     0.06864
  269        500     0.07769
  270        494     0.05738
  271        502     0.06580
  272        476     0.06305
  273        460     0.05749
  274        493     0.06666
  275        462     0.05794
  276        461     0.06391
  277        485     0.05524
  278        516     0.05733
  279        519     0.05959
  280        488     0.05259
  281        480     0.04943
  282        466     0.05702
  283        492     0.05936
  284        472     0.05278
  285        471     0.05282
  286        461     0.06121
  287        452     0.05006
  288        453     0.05086
  289        450     0.04823
  290        433     0.04444
  291        451     0.05465
  292        455     0.05952
  293        435     0.05399
  294        439     0.05433
  295        468     0.04972
  296        450     0.05050
  297        464     0.05401
  298        421     0.05834
  299        450     0.05952
  300        414     0.04489
  301        430     0.05403
  302        401     0.04770
  303        409     0.04261
  304        408     0.04451
  305        443     0.04357
  306        415     0.04181
  307        399     0.04385
  308        425     0.04187
  309        373     0.03411
  310        447     0.05438
  311        411     0.04800
  312        376     0.04556
  313        429     0.04156
  314        403     0.04546
  315        378     0.04068
  316        379     0.04104
  317        391     0.04244
  318        392     0.05221
  319        406     0.04086
  320        416     0.04331
  321        387     0.04115
  322        393     0.04699
  323        396     0.04675
  324        414     0.04267
  325        430     0.03564
  326        410     0.04239
  327        391     0.04459
  328        373     0.04089
  329        427     0.04733
  330        371     0.04392
  331        377     0.03930
  332        351     0.03813
  333        384     0.04337
  334        410     0.04626
  335        373     0.04381
  336        380     0.03821
  337        392     0.04998
  338        398     0.03822
  339        411     0.04365
  340        398     0.04273
  341        368     0.04091
  342        381     0.03560
  343        350     0.03614
  344        368     0.04152
  345        340     0.03592
  346        376     0.03630
  347        370     0.03706
  348        329     0.03193
  349        377     0.03459
  350        359     0.03174
  351        342     0.03194
  352        390     0.03794
  353        338     0.03697
  354        345     0.03700
  355        375     0.03955
  356        327     0.04011
  357        351     0.04412
  358        350     0.03341
  359        352     0.02972
  360        385     0.03711
  361        349     0.02928
  362        372     0.04101
  363        323     0.03267
  364        341     0.03362
  365        315     0.03555
  366        348     0.03737
  367        334     0.02897
  368        336     0.03103
  369        355     0.04194
  370        313     0.04787
  371        361     0.03783
  372        319     0.02838
  373        342     0.03282
  374        341     0.04022
  375        323     0.03438
  376        323     0.03082
  377        364     0.03711
  378        347     0.03540
  379        314     0.03608
  380        320     0.03306
  381        340     0.03121
  382        318     0.03895
  383        316     0.03710
  384        382     0.04489
  385        371     0.04073
  386        320     0.04480
  387        325     0.03517
  388        337     0.03194
  389        351     0.03390
  390        325     0.03326
  391        327     0.03680
  392        340     0.03137
  393        336     0.04164
  394        311     0.03010
  395        329     0.03590
  396        332     0.03605
  397        330     0.03931
  398        301     0.03654
  399        331     0.03571
  400        311     0.03508
  401        347     0.03236
  402        337     0.03773
  403        298     0.03433
  404        310     0.03507
  405        281     0.02795
  406        302     0.03098
  407        302     0.02950
  408        332     0.03283
  409        319     0.02901
  410        288     0.03286
  411        291     0.02672
  412        295     0.03045
  413        301     0.03838
  414        282     0.03001
  415        284     0.03928
  416        295     0.03333
  417        254     0.02804
  418        256     0.03647
  419        238     0.02722
  420        219     0.03083
  421        197     0.02313
  422        179     0.02799
  423        172     0.02485
  424        187     0.02491
  425        165     0.02149
  426        136     0.02188
  427        100     0.01564
  428        118     0.02241
  429         83     0.01471
  430         85     0.01541
  431        100     0.01626
  432         83     0.01533
  433         83     0.01410
  434         92     0.02276
  435         70     0.01919
  436         73     0.02367
  437         62     0.02566
  438         70     0.01527
  439         64     0.01802
  440         72     0.01501
  441         58     0.01718
  442         46     0.01406
  443         46     0.01281
  444         70     0.01782
  445         51     0.01721
  446         36     0.01505
  447         54     0.01806
  448         54     0.02055
  449         43     0.01858
  450         33     0.01774
  451         54     0.02216
  452         42     0.01420
  453         29     0.01269
  454         25     0.00931
  455         33     0.01676
  456         39     0.01526
  457         35     0.02076
  458         32     0.01330
  459         31     0.01010
  460         38     0.01131
  461         33     0.01210
  462         27     0.01082
  463         30     0.01004
  464         32     0.01079
  465         27     0.01379
  466         22     0.00931
  467         27     0.01520
  468         32     0.01083
  469         17     0.01014
  470         29     0.01548
  471         22     0.00989
  472         15     0.01095
  473         21     0.01447
  474         24     0.01078
  475         26     0.00955
  476         22     0.01055
  477         12     0.00859
  478         22     0.00958
  479         29     0.01527
  480         15     0.00845
  481         21     0.01273
  482         23     0.01179
  483         23     0.01184
  484         20     0.01439
  485         20     0.00886
  486         21     0.01000
  487         22     0.00908
  488         23     0.01309
  489         21     0.01348
  490         17     0.00829
  491         18     0.00839
  492         17     0.01119
  493         20     0.00946
  494         18     0.00899
  495         18     0.01173
  496         15     0.00827
  497         20     0.01913
  498         19     0.00865
  499         19     0.01200
  500         16     0.00803
  501         10     0.00774
  502         10     0.00923
  503         12     0.00781
  504         17     0.00880
  505         20     0.01098
  506         19     0.01140
  507         21     0.00918
  508         16     0.01207
  509         15     0.01060
  510         19     0.00902
  511         10     0.00731
  512          4     0.00652
  513         13     0.00945
  514          9     0.00712
  515          9     0.00910
  516         13     0.01440
  517          7     0.00946
  518         17     0.00896
  519         13     0.00775
  520          9     0.00764
  521          9     0.00926
  522          9     0.00931
  523         12     0.01655
  524         11     0.01097
  525         13     0.01267
  526         19     0.01360
  527         11     0.00914
  528          7     0.00705
  529         11     0.00701
  530          8     0.01152
  531         11     0.00961
  532         10     0.00774
  533          9     0.00941
  534         12     0.01174
  535          6     0.00924
  536          7     0.00956
  537          6     0.00666
  538         15     0.00832
  539         15     0.00804
  540         16     0.00830
  541          9     0.00733
  542          8     0.00740
  543         14     0.01072
  544          4     0.00650
  545          8     0.00936
  546          9     0.01358
  547          7     0.00751
  548          6     0.00766
  549          7     0.00925
  550         11     0.00975
  551          8     0.00735
  552         14     0.00808
  553          7     0.00690
  554          9     0.00730
  555          6     0.00596
  556          8     0.01156
  557          5     0.00665
  558         14     0.00822
  559          8     0.00706
  560          8     0.00690
  561          9     0.00932
  562         15     0.00816
  563         12     0.00759
  564          8     0.00870
  565          6     0.00660
  566          5     0.00676
  567          7     0.00942
  568          6     0.00686
  569          7     0.00953
  570          3     0.00628
  571         10     0.01197
  572          4     0.00981
  573          2     0.00560
  574          7     0.00662
  575          6     0.01015
  576          6     0.00999
  577          6     0.00659
  578          5     0.00669
  579          2     0.00549
  580          6     0.00657
  581          7     0.00685
  582         10     0.00750
  583          3     0.00900
  584          9     0.01060
  585          7     0.00753
  586          9     0.01011
  587          6     0.00685
  588          4     0.00652
  589          7     0.00694
  590          8     0.01278
  591          3     0.00611
  592          8     0.00727
  593          8     0.00946
  594          6     0.00918
  595          5     0.00674
  596          8     0.01145
  597          4     0.00902
  598          4     0.00886
  599          1     0.00596
  600          6     0.00643
  601         11     0.01086
  602          3     0.00659
  603          8     0.02808
  604          4     0.00642
  605          4     0.00661
  606          1     0.00599
  608          8     0.01253
  609          5     0.00664
  610          7     0.01155
  611          5     0.00746
  612          3     0.00616
  613          2     0.00646
  615          3     0.00619
  616          4     0.00658
  617          2     0.01343
  618          3     0.00596
  619          3     0.00593
  620          3     0.00567
  621          2     0.00577
  622          7     0.00736
  623          2     0.00620
  624          5     0.01096
  625          5     0.00661
  626          4     0.00653
  627          7     0.01077
  628          5     0.00652
  629          2     0.00639
  630          3     0.00623
  631          1     0.00609
  632          4     0.00677
  633          4     0.00648
  634          4     0.00654
  635          4     0.00862
  636          3     0.00629
  637          6     0.00681
  638          7     0.00693
  639          2     0.00634
  641          1     0.00588
  642          2     0.00587
  643          3     0.00642
  644          3     0.00626
  645          4     0.00864
  646          1     0.00579
  647          4     0.00957
  648          1     0.00574
  649          3     0.00611
  650          3     0.00589
  651          1     0.00614
  652          3     0.00679
  653          3     0.00645
  656          3     0.00576
  657          2     0.00831
  658          2     0.00579
  659          2     0.00566
  660          1     0.00572
  661          3     0.00592
  662          3     0.00590
  664          5     0.00608
  665          2     0.00890
  666          2     0.00602
  667          2     0.00560
  668          2     0.00631
  669          2     0.00580
  672          2     0.00615
  673          2     0.00623
  675          1     0.00581
  677          3     0.00676
  679          1     0.00586
  681          3     0.00661
  683          3     0.00761
  686          2     0.00619
  688          1     0.00615
  689          1     0.00597
  690          1     0.00629
  692          2     0.00626
  694          2     0.00632
  697          1     0.00648
  699          1     0.00624
  702          1     0.00660
  703          3     0.00618
  708          2     0.00593
  710          1     0.00604
  714          2     0.00652
  715          1     0.00600
  716          4     0.01072
  717          1     0.00623
  718          1     0.00636
  719          2     0.00613
  720          2     0.00598
  721          1     0.00650
  722          1     0.00655
  725          3     0.00651
  727          2     0.01004
  731          2     0.00598
  732          1     0.00596
  733          1     0.00631
  734          1     0.00565
  735          1     0.00604
  736          1     0.00625
  741          1     0.00613
  743          1     0.00989
  744          1     0.00584
  746          1     0.00594
  751          1     0.00606
  758          1     0.00596
  759          1     0.00621
  761          1     0.00585
  763          1     0.00559
  767          1     0.00607
  772          1     0.00617
  777          1     0.00577
  778          2     0.00613
  782          2     0.00606
  785          1     0.00583
  786          1     0.01018
  796          1     0.00637
  800          1     0.00601
  805          1     0.00615
  807          1     0.00596
  808          1     0.00570
  811          1     0.01047
  815          1     0.00555
  821          1     0.00689
  827          1     0.00617
  840          2     0.00684
  842          1     0.00655
  851          1     0.00635
  853          1     0.00674
  856          1     0.00621
  874          2     0.00629
  952          1     0.00539
  971          1     0.00572
 1014          1     0.00550
took 592 iterations
Trial Time:          0.06148
    0          1     0.04875
   13          1     0.00564
   14          1     0.10258
   15          1     0.12367
   17          2     0.15552
   18          2     0.09539
   19          6     0.33090
   20          6     0.23307
   21          4     0.05674
   22          9     0.37584
   23         11     0.88630
   24         30     0.84447
   25         49     0.88286
   26         47     0.86228
   27         72     1.05828
   28         83     1.24342
   29        124     1.10204
   30        151     1.25445
   31        206     1.54146
   32        285     1.91452
   33        366     1.48732
   34        422     1.41709
   35        480     1.27074
   36        646     1.58609
   37        644     1.23081
   38        701     1.34527
   39        758     1.21738
   40        835     1.29643
   41        821     0.99379
   42        878     0.96154
   43        950     1.00189
   44        928     0.76227
   45        955     0.73415
   46        897     0.59403
   47        863     0.55227
   48        922     0.57861
   49       1010     0.50716
   50        921     0.46374
   51        924     0.40372
   52        946     0.46951
   53        918     0.37294
   54        946     0.40016
   55        840     0.33798
   56        865     0.29789
   57        848     0.30046
   58        861     0.29785
   59        900     0.25586
   60        820     0.22573
   61        912     0.26945
   62        856     0.23729
   63        803     0.20965
   64        829     0.20850
   65        902     0.20133
   66        825     0.23297
   67        791     0.17385
   68        769     0.17067
   69        834     0.22925
   70        809     0.17424
   71        748     0.15623
   72        800     0.14282
   73        796     0.16238
   74        763     0.17377
   75        720     0.13699
   76        710     0.15672
   77        707     0.13299
   78        681     0.11754
   79        740     0.13141
   80        714     0.13282
   81        717     0.12875
   82        708     0.11384
   83        674     0.11164
   84        698     0.12157
   85        659     0.10917
   86        661     0.11473
   87        698     0.11045
   88        664     0.10264
   89        663     0.10596
   90        661     0.09742
   91        623     0.09069
   92        634     0.10176
   93        604     0.09077
   94        637     0.08571
   95        607     0.08872
   96        597     0.08702
   97        663     0.09749
   98        582     0.09000
   99        582     0.09025
  100        591     0.08902
  101        540     0.06862
  102        590     0.09201
  103        520     0.08018
  104        566     0.07240
  105        581     0.07890
  106        575     0.08177
  107        550     0.08031
  108        542     0.07955
  109        532     0.06475
  110        573     0.06734
  111        555     0.08425
  112        580     0.08381
  113        546     0.07638
  114        544     0.06914
  115        534     0.08159
  116        552     0.07300
  117        542     0.06523
  118        503     0.06839
  119        517     0.07060
  120        516     0.06647
  121        529     0.07304
  122        545     0.06706
  123        537     0.06663
  124        539     0.06907
  125        540     0.06677
  126        499     0.06343
  127        512     0.07355
  128        515     0.06557
  129        528     0.06227
  130        508     0.05408
  131        491     0.05835
  132        535     0.06637
  133        497     0.05983
  134        487     0.05751
  135        503     0.07189
  136        509     0.06144
  137        512     0.06467
  138        493     0.05754
  139        466     0.06243
  140        475     0.05656
  141        505     0.06718
  142        469     0.05026
  143        486     0.05553
  144        481     0.05821
  145        462     0.05424
  146        504     0.05578
  147        439     0.06228
  148        514     0.05371
  149        482     0.05035
  150        429     0.04537
  151        462     0.05587
  152        472     0.05527
  153        490     0.05771
  154        478     0.05547
  155        461     0.05291
  156        463     0.05184
  157        499     0.05174
  158        438     0.04429
  159        406     0.05087
  160        423     0.04855
  161        408     0.06409
  162        468     0.05464
  163        420     0.04364
  164        464     0.05559
  165        419     0.04525
  166        436     0.05622
  167        419     0.04952
  168        454     0.05338
  169        423     0.04801
  170        389     0.03929
  171        409     0.04229
  172        418     0.03712
  173        451     0.04772
  174        411     0.05235
  175        409     0.04647
  176        427     0.04709
  177        416     0.04414
  178        407     0.03835
  179        411     0.04577
  180        425     0.04093
  181        395     0.03846
  182        392     0.04806
  183        384     0.04126
  184        390     0.04655
  185        417     0.03592
  186        393     0.04037
  187        400     0.04622
  188        394     0.04879
  189        414     0.05162
  190        413     0.04347
  191        407     0.03912
  192        414     0.04696
  193        373     0.04090
  194        388     0.03944
  195        447     0.05200
  196        377     0.04679
  197        412     0.04873
  198        362     0.04101
  199        385     0.04656
  200        372     0.04500
  201        379     0.04317
  202        394     0.03881
  203        362     0.03832
  204        379     0.04055
  205        377     0.03415
  206        382     0.04494
  207        395     0.04220
  208        365     0.04436
  209        345     0.03127
  210        405     0.04174
  211        372     0.04878
  212        342     0.03752
  213        364     0.05009
  214        354     0.03439
  215        403     0.03866
  216        372     0.04233
  217        359     0.03268
  218        363     0.03589
  219        390     0.04139
  220        343     0.03409
  221        300     0.03169
  222        380     0.03842
  223        343     0.03968
  224        330     0.05729
  225        289     0.03002
  226        359     0.03600
  227        348     0.03193
  228        354     0.03560
  229        349     0.03573
  230        323     0.03471
  231        354     0.03985
  232        362     0.03485
  233        339     0.03134
  234        359     0.03681
  235        332     0.03163
  236        324     0.03308
  237        328     0.03498
  238        320     0.03384
  239        341     0.03543
  240        348     0.03016
  241        344     0.03826
  242        335     0.03539
  243        350     0.04186
  244        316     0.03418
  245        329     0.03430
  246        335     0.03324
  247        339     0.03027
  248        321     0.03070
  249        313     0.03627
  250        345     0.03533
  251        370     0.03659
  252        326     0.03588
  253        349     0.04101
  254        353     0.04129
  255        332     0.04285
  256        354     0.03555
  257        349     0.04446
  258        315     0.03642
  259        339     0.03898
  260        321     0.03467
  261        338     0.03899
  262        324     0.03112
  263        319     0.03997
  264        342     0.03591
  265        295     0.04058
  266        316     0.03286
  267        335     0.03894
  268        330     0.03154
  269        296     0.03114
  270        263     0.02666
  271        324     0.04056
  272        280     0.03044
  273        315     0.03265
  274        346     0.03036
  275        324     0.03931
  276        314     0.02905
  277        290     0.02873
  278        288     0.03812
  279        279     0.03585
  280        292     0.03562
  281        279     0.03246
  282        272     0.02671
  283        262     0.03225
  284        267     0.03704
  285        219     0.02532
  286        219     0.02842
  287        197     0.03517
  288        199     0.02452
  289        192     0.02764
  290        184     0.02561
  291        164     0.02544
  292        121     0.01497
  293        149     0.02382
  294        115     0.01886
  295         96     0.01607
  296        103     0.01835
  297         93     0.01407
  298         81     0.01879
  299         71     0.01454
  300         87     0.01535
  301         93     0.02271
  302         65     0.02316
  303         76     0.01848
  304         66     0.02351
  305         62     0.02175
  306         53     0.01716
  307         57     0.01984
  308         59     0.01382
  309         54     0.01961
  310         55     0.01892
  311         55     0.01631
  312         56     0.01786
  313         50     0.01990
  314         42     0.02028
  315         39     0.01107
  316         29     0.01618
  317         44     0.01301
  318         33     0.01746
  319         43     0.01465
  320         41     0.01630
  321         33     0.01769
  322         34     0.01127
  323         43     0.01416
  324         41     0.01666
  325         26     0.01060
  326         32     0.01483
  327         34     0.01389
  328         32     0.01267
  329         17     0.00831
  330         37     0.01261
  331         27     0.01243
  332         30     0.01302
  333         28     0.01291
  334         21     0.00885
  335         21     0.01175
  336         26     0.01311
  337         29     0.01418
  338         14     0.01156
  339         27     0.01027
  340         27     0.01242
  341         25     0.00935
  342         14     0.01150
  343         22     0.00939
  344         25     0.00995
  345         19     0.00912
  346         16     0.00884
  347         20     0.01326
  348         24     0.01402
  349         20     0.00878
  350         26     0.00965
  351         18     0.00848
  352         15     0.00839
  353         16     0.01061
  354         24     0.01317
  355         20     0.00880
  356         19     0.01254
  357         17     0.00861
  358         24     0.01154
  359         17     0.01226
  360         15     0.00821
  361         15     0.01035
  362         15     0.00868
  363         13     0.01047
  364         20     0.00954
  365         17     0.01161
  366         13     0.00811
  367         20     0.01375
  368         19     0.00936
  369         23     0.01230
  370         17     0.00849
  371         16     0.01342
  372         12     0.00759
  373         14     0.01240
  374         19     0.01257
  375         15     0.00817
  376         11     0.00799
  377         13     0.00834
  378          7     0.00686
  379         13     0.00804
  380         15     0.00846
  381         14     0.00822
  382         10     0.00878
  383         10     0.00737
  384          9     0.01308
  385         10     0.00744
  386         12     0.01540
  387         20     0.01318
  388         12     0.01413
  389         11     0.01367
  390          7     0.00714
  391         10     0.00787
  392          8     0.00980
  393         10     0.00965
  394          8     0.00734
  395         10     0.00757
  396         13     0.01210
  397         15     0.01456
  398         10     0.01220
  399          9     0.00726
  400         11     0.01235
  401          8     0.00697
  402         17     0.01190
  403          7     0.01102
  404          9     0.00761
  405         12     0.00784
  406         11     0.00769
  407         11     0.01034
  408         10     0.01263
  409         11     0.00803
  410         15     0.01232
  411         10     0.00851
  412          4     0.00931
  413          6     0.00799
  414          8     0.00734
  415         10     0.00913
  416          8     0.00710
  417          9     0.00741
  418          2     0.00619
  419          9     0.00730
  420          9     0.00723
  421         18     0.01157
  422          7     0.00628
  423         11     0.00815
  424          7     0.00700
  425         10     0.00752
  426          7     0.00708
  427         12     0.00928
  428          4     0.00673
  429          8     0.00700
  430          7     0.01093
  431          9     0.01205
  432          6     0.00660
  433          5     0.00659
  434         11     0.00976
  435          7     0.00670
  436          8     0.00728
  437          2     0.00625
  438          7     0.01087
  439          3     0.00629
  440          3     0.00623
  441          5     0.00656
  442          9     0.00736
  443          5     0.00644
  444          3     0.00872
  445          9     0.01087
  446          5     0.00623
  447          8     0.00724
  448          7     0.00821
  449          4     0.00966
  450          6     0.00814
  451          3     0.00620
  452         10     0.02182
  453          8     0.00860
  454          9     0.00698
  455          9     0.00703
  456          7     0.01164
  457         10     0.01165
  458          5     0.00643
  459          7     0.01048
  460          5     0.00769
  461          7     0.00698
  462          4     0.00643
  463          3     0.00627
  464          6     0.01164
  465          6     0.01069
  466          3     0.00898
  467          7     0.00705
  468          6     0.00642
  469          4     0.00639
  470          3     0.00613
  471          6     0.01141
  472          5     0.00628
  473          1     0.00574
  474          4     0.00652
  475          4     0.01071
  476          4     0.00661
  477          3     0.00602
  478          5     0.00668
  479          4     0.00780
  480          4     0.00656
  481          2     0.00618
  482          5     0.01086
  483          2     0.00621
  484          3     0.00617
  485          3     0.00585
  486          3     0.00579
  487          4     0.00661
  488          3     0.00643
  489          3     0.00597
  490          8     0.00725
  491          5     0.01230
  492          3     0.00595
  493          3     0.00574
  494          6     0.00651
  495          1     0.00592
  497          3     0.00937
  498          4     0.00648
  499          3     0.00575
  500          1     0.00564
  501          2     0.00610
  502          3     0.00613
  503          6     0.00682
  504          5     0.00641
  505          5     0.00988
  506          4     0.00647
  507          4     0.00622
  509          4     0.00628
  510          2     0.00622
  511          2     0.00620
  513          5     0.01063
  514          2     0.00592
  515          3     0.00588
  516          3     0.00605
  517          3     0.00816
  518          2     0.00851
  519          2     0.00505
  520          5     0.00586
  521          1     0.00613
  522          3     0.00622
  524          1     0.00605
  525          5     0.00989
  526          2     0.00592
  529          2     0.00613
  530          1     0.00547
  531          1     0.00584
  532          6     0.00684
  534          2     0.00536
  535          2     0.00626
  536          2     0.00557
  537          1     0.00805
  538          2     0.00589
  539          2     0.00593
  540          1     0.00602
  541          1     0.00594
  542          2     0.00594
  544          2     0.00641
  546          1     0.00592
  547          1     0.00609
  551          2     0.00586
  552          3     0.00742
  555          2     0.00595
  558          1     0.00590
  559          1     0.00558
  560          2     0.00594
  562          2     0.00589
  563          1     0.00592
  564          1     0.00516
  566          2     0.00622
  569          1     0.00585
  570          1     0.00608
  571          2     0.00605
  575          2     0.00558
  578          2     0.00567
  579          1     0.00586
  580          1     0.00597
  582          1     0.00593
  585          1     0.00595
  586          1     0.00996
  587          2     0.00594
  588          2     0.00602
  589          1     0.00576
  590          1     0.00533
  592          3     0.00568
  594          2     0.00582
  595          3     0.01008
  596          1     0.00608
  598          1     0.00578
  603          1     0.00570
  606          2     0.00611
  609          1     0.00602
  611          1     0.00611
  615          2     0.00802
  617          1     0.00611
  626          2     0.00564
  629          1     0.00619
  633          1     0.00538
  634          1     0.00609
  642          2     0.00550
  646          1     0.00550
  648          1     0.00596
  649          1     0.00602
  650          1     0.00522
  654          2     0.00987
  657          1     0.00552
  662          1     0.00561
  666          1     0.00588
  676          1     0.00582
  677          1     0.00515
  679          1     0.00916
  686          1     0.00518
  689          1     0.00564
  698          1     0.00578
  705          1     0.00558
  707          1     0.00564
  711          1     0.00553
  718          2     0.00549
  719          1     0.00600
  744          1     0.00572
  746          1     0.00622
  822          1     0.00606
  839          1     0.00588
  882          1     0.00527
took 590 iterations
Trial Time:          0.06174
    0          1     0.02130
   34          1     1.11376
   35         10     0.11369
   36         12     0.40162
   37         14     0.29849
   38         12     0.16084
   39         24     0.61355
   40         38     0.76794
   41         52     0.95269
   42         76     1.36250
   43         93     1.32395
   44        156     1.17203
   45        148     0.91785
   46        212     1.37485
   47        263     1.34902
   48        344     1.34741
   49        406     1.64132
   50        536     1.46213
   51        543     1.29509
   52        647     1.47144
   53        709     1.35097
   54        773     1.29673
   55        819     0.98849
   56        887     1.12551
   57        904     0.90768
   58        899     0.80344
   59        938     0.79103
   60        908     0.72975
   61        924     0.65310
   62        946     0.58557
   63        928     0.49128
   64        968     0.54981
   65        902     0.46997
   66        956     0.42969
   67        969     0.41318
   68        972     0.39013
   69        923     0.36774
   70        873     0.33913
   71        902     0.32394
   72        869     0.27176
   73        861     0.27838
   74        796     0.25196
   75        856     0.24963
   76        876     0.28068
   77        825     0.22304
   78        833     0.22844
   79        845     0.25727
   80        888     0.22995
   81        808     0.19882
   82        777     0.17911
   83        832     0.19463
   84        803     0.20647
   85        766     0.14580
   86        761     0.15987
   87        818     0.18665
   88        758     0.16544
   89        773     0.15038
   90        738     0.13659
   91        769     0.12837
   92        736     0.14689
   93        670     0.12023
   94        730     0.13697
   95        686     0.11871
   96        681     0.13294
   97        667     0.12717
   98        670     0.11553
   99        683     0.11089
  100        687     0.11159
  101        683     0.11034
  102        637     0.10972
  103        660     0.10877
  104        678     0.09532
  105        679     0.09656
  106        678     0.10045
  107        624     0.10588
  108        632     0.08831
  109        621     0.09452
  110        619     0.10055
  111        635     0.10412
  112        657     0.09596
  113        588     0.08887
  114        577     0.07972
  115        555     0.09818
  116        578     0.08547
  117        629     0.08318
  118        532     0.07889
  119        555     0.07995
  120        564     0.08264
  121        552     0.07902
  122        573     0.08191
  123        551     0.06857
  124        572     0.08264
  125        565     0.07715
  126        557     0.07841
  127        556     0.07092
  128        507     0.06285
  129        525     0.07614
  130        535     0.07831
  131        512     0.06949
  132        547     0.07450
  133        512     0.06671
  134        553     0.06810
  135        498     0.08017
  136        523     0.06430
  137        527     0.07516
  138        527     0.07057
  139        534     0.06216
  140        517     0.05911
  141        513     0.05945
  142        474     0.07125
  143        497     0.06264
  144        515     0.06215
  145        496     0.06406
  146        523     0.06740
  147        517     0.06077
  148        522     0.07355
  149        504     0.05935
  150        489     0.06286
  151        546     0.06737
  152        491     0.05912
  153        523     0.07361
  154        477     0.05242
  155        464     0.05505
  156        492     0.05577
  157        485     0.05547
  158        494     0.05489
  159        440     0.04979
  160        463     0.05179
  161        473     0.05220
  162        544     0.05495
  163        444     0.05863
  164        449     0.06608
  165        446     0.06108
  166        456     0.04588
  167        473     0.06382
  168        461     0.06188
  169        439     0.05384
  170        466     0.05742
  171        455     0.04514
  172        438     0.04968
  173        449     0.05142
  174        445     0.04977
  175        435     0.04954
  176        457     0.06542
  177        433     0.05471
  178        449     0.05669
  179        429     0.05084
  180        412     0.04854
  181        440     0.05445
  182        432     0.04878
  183        425     0.04138
  184        416     0.04694
  185        416     0.03529
  186        444     0.05055
  187        449     0.04775
  188        408     0.03606
  189        410     0.04297
  190        374     0.04661
  191        415     0.05390
  192        411     0.04865
  193        386     0.04151
  194        383     0.04280
  195        374     0.03752
  196        394     0.04074
  197        451     0.04427
  198        461     0.04177
  199        408     0.04628
  200        405     0.04123
  201        364     0.03758
  202        402     0.04671
  203        384     0.05760
  204        384     0.04871
  205        373     0.04667
  206        399     0.04404
  207        380     0.03897
  208        396     0.04966
  209        366     0.04189
  210        397     0.04414
  211        389     0.04489
  212        370     0.04477
  213        391     0.03813
  214        385     0.04684
  215        380     0.04363
  216        382     0.04728
  217        402     0.05716
  218        405     0.04330
  219        384     0.04225
  220        389     0.04026
  221        405     0.03359
  222        354     0.04201
  223        392     0.04055
  224        373     0.04974
  225        349     0.03882
  226        372     0.04111
  227        373     0.03959
  228        341     0.03547
  229        369     0.03242
  230        357     0.04464
  231        333     0.04363
  232        372     0.03417
  233        326     0.05336
  234        356     0.03331
  235        343     0.03380
  236        343     0.04212
  237        343     0.03590
  238        363     0.04042
  239        354     0.03552
  240        389     0.03697
  241        374     0.03957
  242        330     0.03163
  243        337     0.04118
  244        345     0.03181
  245        324     0.03224
  246        321     0.03932
  247        334     0.03098
  248        343     0.03166
  249        340     0.04453
  250        329     0.03322
  251        340     0.04131
  252        346     0.03123
  253        362     0.03295
  254        339     0.03566
  255        328     0.03442
  256        334     0.03312
  257        338     0.03332
  258        311     0.02954
  259        320     0.03521
  260        313     0.03250
  261        353     0.03731
  262        320     0.03616
  263        337     0.03555
  264        277     0.02747
  265        344     0.03252
  266        299     0.03897
  267        348     0.03511
  268        342     0.03286
  269        338     0.03784
  270        351     0.03948
  271        342     0.03310
  272        326     0.03454
  273        353     0.03960
  274        319     0.04138
  275        351     0.03759
  276        356     0.03844
  277        326     0.03390
  278        338     0.03457
  279        323     0.02623
  280        329     0.03684
  281        323     0.04047
  282        309     0.03477
  283        345     0.03095
  284        311     0.03484
  285        306     0.03330
  286        296     0.03414
  287        309     0.03215
  288        292     0.02861
  289        309     0.03040
  290        338     0.03375
  291        304     0.02870
  292        312     0.03110
  293        294     0.03359
  294        329     0.03401
  295        301     0.04074
  296        267     0.02852
  297        262     0.03081
  298        261     0.02640
  299        241     0.02702
  300        214     0.02466
  301        219     0.02868
  302        193     0.02794
  303        218     0.03571
  304        187     0.02533
  305        169     0.02848
  306        144     0.01672
  307        139     0.02226
  308        139     0.02082
  309        110     0.01834
  310         88     0.01538
  311        103     0.02042
  312        108     0.01545
  313         91     0.01519
  314         90     0.02138
  315         79     0.01647
  316         71     0.02000
  317         71     0.02067
  318         78     0.02482
  319         70     0.01965
  320         74     0.02167
  321         76     0.01618
  322         54     0.01462
  323         51     0.01804
  324         45     0.01719
  325         53     0.01753
  326         41     0.01809
  327         47     0.02008
  328         41     0.01416
  329         51     0.02138
  330         41     0.01961
  331         45     0.01316
  332         38     0.01141
  333         42     0.01303
  334         38     0.01390
  335         42     0.01556
  336         40     0.01688
  337         26     0.01770
  338         32     0.01213
  339         38     0.01158
  340         37     0.01678
  341         37     0.01406
  342         26     0.01016
  343         27     0.01412
  344         30     0.01071
  345         19     0.00883
  346         37     0.01154
  347         32     0.01016
  348         28     0.01546
  349         22     0.01093
  350         23     0.01093
  351         25     0.00999
  352         21     0.01078
  353         28     0.01612
  354          8     0.00764
  355         20     0.01159
[...]
  629          2     0.00611
  630          2     0.00595
  631          2     0.00586
  632          3     0.00607
  633          3     0.00583
  634          1     0.00566
  635          3     0.00537
  636          3     0.00604
  637          2     0.00861
  640          2     0.00591
  641          1     0.00602
  642          3     0.00953
  643          1     0.00569
  644          1     0.00568
  645          3     0.00559
  646          1     0.00600
  649          1     0.00589
  650          1     0.00564
  651          3     0.00567
  654          2     0.00555
  655          3     0.00601
  657          2     0.00594
  658          1     0.00594
  659          1     0.00522
  665          1     0.00585
  667          2     0.00630
  668          3     0.00560
  669          1     0.00582
  671          1     0.00593
  672          3     0.00573
  674          1     0.00541
  678          1     0.00568
  680          2     0.00616
  681          1     0.00569
  683          1     0.00538
  686          1     0.00546
  687          1     0.00533
  689          1     0.00564
  690          2     0.00578
  691          1     0.00830
  692          1     0.00533
  693          2     0.00568
  695          1     0.00929
  697          2     0.00585
  699          1     0.00575
  700          2     0.00575
  701          1     0.00554
  702          2     0.00557
  703          3     0.00595
  706          1     0.00529
  708          1     0.00590
  709          1     0.00525
  710          1     0.00550
  712          1     0.00578
  716          1     0.00587
  717          1     0.00537
  719          1     0.00587
  720          1     0.00588
  725          1     0.00539
  726          2     0.00902
  727          1     0.00606
  732          1     0.00606
  739          1     0.00570
  743          1     0.00532
  747          2     0.00585
  749          1     0.01040
  753          1     0.00580
  754          1     0.00566
  758          2     0.00551
  759          1     0.00625
  760          1     0.00578
  771          1     0.00565
  775          1     0.00559
  778          1     0.00577
  781          1     0.00570
  782          1     0.00555
  783          1     0.00919
  797          1     0.00624
  801          2     0.00588
  810          1     0.00587
  813          1     0.00564
  815          1     0.00565
  827          2     0.00601
  850          1     0.00570
  857          1     0.00629
  931          1     0.00549
  934          1     0.00625
  986          1     0.00556
took 599 iterations
Trial Time:          0.06202
    0          1     0.02146
   97          1     0.14042
   99          1     0.01983
  104          2     0.47396
  105          5     0.39214
  106          5     0.09079
  107         10     0.33491
  108         12     0.40400
  109         10     0.28315
  110         15     0.27539
  111         18     0.62236
  112         30     1.27253
  113         48     1.05984
  114         90     1.35088
  115        123     1.56459
  116        166     1.60513
  117        217     1.21153
  118        283     1.55250
  119        384     1.49714
  120        447     1.60576
  121        545     1.42091
  122        597     1.30069
  123        674     1.33271
  124        719     1.34230
  125        769     1.30791
  126        825     1.15698
  127        847     0.96692
  128        876     0.91343
  129        859     0.75274
  130        941     0.81678
  131        941     0.76386
  132        948     0.60804
  133        953     0.57759
  134        947     0.52214
  135        930     0.50223
  136        907     0.45792
  137        947     0.51244
  138        973     0.45380
  139        935     0.35783
  140        927     0.36589
  141        872     0.32983
  142        866     0.30345
  143        918     0.34207
  144        847     0.26912
  145        843     0.25852
  146        852     0.24672
  147        847     0.25275
  148        850     0.22223
  149        844     0.20568
  150        774     0.22809
  151        906     0.22329
  152        830     0.19328
  153        833     0.18891
  154        803     0.18759
  155        788     0.19660
  156        798     0.18777
  157        768     0.16282
  158        781     0.18510
  159        782     0.15532
  160        718     0.14430
  161        734     0.13279
  162        716     0.14684
  163        701     0.14335
  164        644     0.12770
  165        715     0.13294
  166        705     0.13953
  167        663     0.10992
  168        649     0.10601
  169        724     0.11942
  170        659     0.11556
  171        730     0.11460
  172        668     0.11496
  173        700     0.11704
  174        661     0.11136
  175        628     0.10336
  176        678     0.10164
  177        689     0.09325
  178        657     0.09126
  179        611     0.11055
  180        633     0.08655
  181        599     0.09557
  182        617     0.09086
  183        578     0.08724
  184        611     0.08049
  185        612     0.08272
  186        599     0.08282
  187        609     0.09362
  188        597     0.09055
  189        552     0.08259
  190        593     0.07674
  191        534     0.07177
  192        570     0.07533
  193        579     0.09437
  194        551     0.06478
  195        578     0.08518
  196        547     0.07521
  197        542     0.06961
  198        533     0.07146
  199        544     0.06734
  200        535     0.08154
  201        558     0.06552
  202        546     0.09089
  203        542     0.06722
  204        544     0.07398
  205        565     0.06599
  206        503     0.06652
  207        552     0.06706
  208        500     0.06638
  209        548     0.06697
  210        520     0.07362
  211        530     0.05422
  212        492     0.06597
  213        487     0.06000
  214        523     0.05778
  215        530     0.06507
  216        497     0.05509
  217        489     0.06717
  218        480     0.06456
  219        486     0.05744
  220        486     0.05105
  221        506     0.06616
  222        512     0.07640
  223        496     0.05547
  224        514     0.05748
  225        519     0.05845
  226        498     0.05606
  227        495     0.06020
  228        469     0.05925
  229        450     0.05325
  230        524     0.06370
  231        507     0.05911
  232        465     0.05874
  233        444     0.05960
  234        475     0.05644
  235        487     0.06297
  236        471     0.04995
  237        458     0.05471
  238        459     0.05724
  239        433     0.05641
  240        476     0.05270
  241        454     0.05821
  242        443     0.05484
  243        466     0.05406
  244        440     0.05576
  245        458     0.05992
  246        442     0.04719
  247        424     0.04636
  248        481     0.05237
  249        426     0.05363
  250        415     0.04439
  251        428     0.05174
  252        409     0.05174
  253        418     0.04723
  254        459     0.04426
  255        395     0.04451
  256        422     0.03930
  257        407     0.04961
  258        420     0.04665
  259        417     0.04554
  260        389     0.04534
  261        424     0.03730
  262        408     0.05104
  263        435     0.04271
  264        394     0.04107
  265        417     0.04404
  266        394     0.03789
  267        397     0.05152
  268        414     0.04600
  269        423     0.04000
  270        433     0.05056
  271        392     0.03736
  272        413     0.05094
  273        404     0.05043
  274        378     0.04952
  275        403     0.04433
  276        355     0.03736
  277        400     0.03702
  278        410     0.04346
  279        388     0.04315
  280        382     0.04151
  281        387     0.04067
  282        403     0.03855
  283        386     0.04779
  284        388     0.04875
  285        373     0.03708
  286        434     0.05654
  287        384     0.04553
  288        358     0.03838
  289        365     0.03657
  290        361     0.03426
  291        365     0.03885
  292        381     0.03904
  293        337     0.04496
  294        384     0.04112
  295        355     0.04405
  296        391     0.04145
  297        346     0.03349
  298        385     0.03882
  299        376     0.03703
  300        356     0.04634
  301        398     0.03630
  302        358     0.03685
  303        361     0.03568
  304        344     0.03717
  305        337     0.04204
  306        337     0.03186
  307        320     0.03668
  308        339     0.03520
  309        400     0.03804
  310        342     0.04416
  311        351     0.03343
  312        332     0.03541
  313        356     0.03197
  314        341     0.03108
  315        365     0.03653
  316        322     0.03599
  317        307     0.02997
  318        355     0.04026
  319        353     0.03332
  320        337     0.03888
  321        331     0.03171
  322        353     0.04050
  323        312     0.03502
  324        334     0.03278
  325        359     0.02966
  326        342     0.03250
  327        331     0.03382
  328        315     0.03334
  329        314     0.03460
  330        349     0.03345
  331        326     0.03200
  332        350     0.03549
  333        290     0.03383
  334        358     0.03554
  335        293     0.04053
  336        338     0.03599
  337        315     0.03502
  338        337     0.04121
  339        345     0.03124
  340        341     0.04245
  341        364     0.04385
  342        347     0.03759
  343        355     0.03735
  344        335     0.03668
  345        341     0.03505
  346        322     0.03993
  347        335     0.03237
  348        324     0.03350
  349        354     0.03581
  350        327     0.02713
  351        335     0.03219
  352        315     0.03135
  353        343     0.03476
  354        339     0.03807
  355        303     0.03327
  356        335     0.03460
  357        303     0.03298
  358        307     0.03393
  359        311     0.03310
  360        309     0.03641
  361        289     0.02819
  362        316     0.03084
  363        327     0.03408
  364        286     0.02791
  365        298     0.03762
  366        270     0.03159
  367        251     0.02533
  368        291     0.02738
  369        255     0.03162
  370        270     0.02460
  371        225     0.02664
  372        197     0.02526
  373        205     0.02770
  374        203     0.03137
  375        198     0.02629
  376        189     0.02730
  377        142     0.01848
  378        158     0.02482
  379        126     0.02262
  380        123     0.01695
  381        105     0.01531
  382         90     0.01440
  383         84     0.01474
  384         83     0.01554
  385         78     0.01888
  386         80     0.01653
  387         66     0.01942
  388         79     0.02142
  389         82     0.02003
  390         71     0.02028
  391         71     0.02199
  392         65     0.02153
  393         50     0.01849
  394         52     0.01311
  395         48     0.01274
  396         53     0.01845
  397         58     0.01290
  398         50     0.01798
  399         44     0.01530
  400         49     0.01882
  401         36     0.01348
  402         55     0.02105
  403         41     0.01731
  404         46     0.01641
  405         32     0.01269
  406         31     0.01258
  407         37     0.01574
  408         29     0.01085
  409         34     0.02215
  410         38     0.01371
  411         42     0.01181
  412         35     0.01492
  413         29     0.01049
  414         26     0.00962
  415         26     0.01244
  416         37     0.01549
  417         26     0.03286
  418         27     0.01197
  419         24     0.00972
  420         21     0.01176
  421         20     0.00935
  422         26     0.01460
  423         22     0.01221
  424         22     0.01087
  425         22     0.00973
  426         30     0.01005
  427         22     0.00932
  428         16     0.00940
  429         21     0.01548
  430         21     0.00947
  431         16     0.00865
  432         22     0.00950
  433         21     0.01020
  434         16     0.00906
  435         23     0.00941
  436         17     0.00784
  437         17     0.01511
  438         23     0.00966
  439         20     0.01400
  440         22     0.00950
  441         23     0.01176
  442         20     0.01340
  443         13     0.00768
  444         27     0.01037
  445         23     0.00961
  446         16     0.00792
  447         15     0.00835
  448         18     0.01174
  449         13     0.01419
  450         20     0.00888
  451         17     0.01100
  452         15     0.00858
  453         21     0.00895
  454         10     0.00734
  455         15     0.01210
  456         20     0.01196
  457         18     0.00873
  458         18     0.00865
  459         11     0.01062
  460         19     0.01538
  461         12     0.00971
  462         14     0.00820
  463         14     0.01273
  464          9     0.00737
  465         10     0.00704
  466          9     0.00744
  467          8     0.00730
  468         18     0.00908
  469         11     0.00723
  470         10     0.01171
  471         15     0.01098
  472         10     0.00826
  473         11     0.01061
  474         15     0.01205
  475         12     0.00926
  476         10     0.01369
  477         11     0.01208
  478         13     0.01115
  479          5     0.00952
  480         13     0.00792
  481         10     0.00779
  482          9     0.00720
  483          9     0.01042
  484         16     0.01349
  485         10     0.00986
  486          9     0.01049
  487         10     0.01077
  488          8     0.00743
  489         15     0.01276
  490         14     0.01267
  491         12     0.00802
  492          9     0.01046
  493         10     0.00961
  494          5     0.00625
  495         12     0.00954
  496          8     0.00730
  497          8     0.00827
  498          9     0.00744
  499          8     0.00709
  500          9     0.00970
  501          6     0.01066
  502          6     0.00850
  503          5     0.00839
  504          7     0.00693
  505          8     0.00725
  506          8     0.00707
  507         13     0.00941
  508          4     0.00623
  509         15     0.00778
  510         16     0.00812
  511         13     0.00815
  512          8     0.00737
  513         13     0.00781
  514          9     0.00871
  515          4     0.00679
  516          6     0.00872
  517          7     0.00707
  518          1     0.00536
  519          6     0.00978
  520          7     0.00982
  521          3     0.00649
  522          9     0.00843
  523          6     0.00697
  524          6     0.00668
  525          7     0.00714
  526          6     0.01086
  527          6     0.00652
  528          4     0.00869
  529          9     0.00751
  530          5     0.00677
  531          6     0.00686
  532          6     0.00961
  533          5     0.00675
  534          6     0.00949
  535          4     0.00644
  536          7     0.00713
  537          8     0.00739
  538          6     0.01002
  539          3     0.00616
  540          9     0.01444
  541         15     0.00822
  542         10     0.00748
  543          7     0.00685
  544          5     0.00631
  545          5     0.00632
  546          5     0.00646
  548          6     0.00944
  549          5     0.00654
  550         15     0.01063
  551          3     0.00814
  552          2     0.00942
  553          7     0.00931
  554          3     0.00732
  555          2     0.00839
  556          6     0.00699
  557          3     0.00883
  558          4     0.00651
  559          4     0.00870
  560          4     0.00652
  561          7     0.00862
  562          2     0.00632
  563          2     0.00556
  564          4     0.00632
  565          3     0.00634
  566          4     0.00646
  567          7     0.01345
  568          1     0.00586
  569          6     0.00707
  570          5     0.00654
  571          1     0.00604
  572          3     0.00630
  573          3     0.00619
  574          6     0.00660
  575          5     0.00646
  576          1     0.00581
  577          5     0.00611
  578          6     0.01211
  579          2     0.00608
  580          4     0.00629
  581          3     0.00595
  582          3     0.00593
  583          2     0.00596
  584          5     0.00647
  585          2     0.00619
  586          2     0.00614
  587          4     0.00722
  588          5     0.00990
  589          1     0.00592
  590          7     0.00685
  591          3     0.00592
  592          2     0.00607
  593          2     0.00584
  594          3     0.00583
  595          1     0.00594
  596          2     0.00547
  597          1     0.00579
  598          3     0.00581
  599          1     0.00569
  600          4     0.00669
  601          4     0.00644
  602          2     0.00591
  603          4     0.00877
  604          2     0.00829
  605          3     0.00912
  606          3     0.00600
  607          2     0.00588
  608          3     0.00565
  609          2     0.00819
  610          1     0.00592
  611          2     0.00608
  612          2     0.00574
  613          2     0.00554
  614          3     0.00595
  615          1     0.00560
  617          2     0.00555
  618          5     0.01015
  620          4     0.00618
  621          1     0.00604
  623          2     0.00601
  624          2     0.00598
  625          2     0.00579
  626          1     0.00488
  627          3     0.00614
  628          1     0.00607
  629          2     0.00592
  632          1     0.00558
  633          1     0.00599
  636          1     0.00597
  637          1     0.00855
  640          1     0.00570
  641          2     0.00580
  643          1     0.00584
  644          2     0.00610
  647          3     0.00571
  650          2     0.00540
  651          1     0.00603
  656          1     0.00560
  657          2     0.00575
  658          1     0.00588
  660          1     0.00542
  662          1     0.00573
  663          1     0.00581
  664          2     0.00558
  665          1     0.00930
  666          1     0.00581
  667          2     0.00581
  670          2     0.00601
  674          3     0.00583
  677          2     0.00582
  678          2     0.00543
  679          1     0.00567
  681          1     0.00597
  682          1     0.00923
  683          2     0.00590
  685          1     0.00594
  686          1     0.00570
  688          1     0.00579
  689          1     0.00570
  694          1     0.00542
  696          1     0.00579
  698          1     0.00577
  699          2     0.00544
  702          1     0.00589
  704          1     0.00919
  709          1     0.00597
  710          1     0.00577
  716          1     0.00562
  722          1     0.00596
  724          1     0.00577
  726          1     0.00559
  730          1     0.00503
  732          1     0.00593
  735          2     0.00583
  736          1     0.00821
  737          1     0.00560
  740          1     0.00497
  746          1     0.00548
  752          1     0.00564
  758          2     0.00584
  759          1     0.00597
  763          1     0.00900
  768          1     0.00586
  771          1     0.00585
  784          1     0.00573
  790          1     0.00584
  794          1     0.00583
  796          1     0.00592
  803          1     0.00596
  806          1     0.00523
  810          1     0.00590
  835          2     0.00650
  901          1     0.00594
  921          1     0.00598
  966          1     0.00543
took 594 iterations
Trial Time:          0.06116
Average Time:        0.06149
Exiting @ tick 2193450239500 because exiting with last active thread context
