
---------- Begin Simulation Statistics ----------
final_tick                                50675045000                       # Number of ticks from beginning of simulation (restored from checkpoints and never reset)
host_inst_rate                                  89304                       # Simulator instruction rate (inst/s)
host_mem_usage                                 738048                       # Number of bytes of host memory used
host_op_rate                                    89675                       # Simulator op (including micro ops) rate (op/s)
host_seconds                                   708.98                       # Real time elapsed on the host
host_tick_rate                               71475868                       # Simulator tick rate (ticks/s)
sim_freq                                 1000000000000                       # Frequency of simulated ticks
sim_insts                                    63314669                       # Number of instructions simulated
sim_ops                                      63577642                       # Number of ops (including micro ops) simulated
sim_seconds                                  0.050675                       # Number of seconds simulated
sim_ticks                                 50675045000                       # Number of ticks simulated
system.cpu0.branchPred.BTBCorrect                   0                       # Number of correct BTB predictions (this stat may not work properly.
system.cpu0.branchPred.BTBHitPct            84.827098                       # BTB Hit Percentage
system.cpu0.branchPred.BTBHits               12403381                       # Number of BTB hits
system.cpu0.branchPred.BTBLookups            14621956                       # Number of BTB lookups
system.cpu0.branchPred.RASInCorrect                 0                       # Number of incorrect RAS predictions.
system.cpu0.branchPred.condIncorrect          2834875                       # Number of conditional branches incorrect
system.cpu0.branchPred.condPredicted         13697638                       # Number of conditional branches predicted
system.cpu0.branchPred.indirectHits            999800                       # Number of indirect target hits.
system.cpu0.branchPred.indirectLookups        1005965                       # Number of indirect predictor lookups.
system.cpu0.branchPred.indirectMisses            6165                       # Number of indirect misses.
system.cpu0.branchPred.lookups               16860462                       # Number of BP lookups
system.cpu0.branchPred.usedRAS                      0                       # Number of times the RAS was used to get a target.
system.cpu0.branchPredindirectMispredicted         3954                       # Number of mispredicted indirect branches.
system.cpu0.commit.amos                         65827                       # Number of atomic instructions committed
system.cpu0.commit.branchMispredicts          1533504                       # The number of times a branch was mispredicted
system.cpu0.commit.branches                   8108619                       # Number of branches committed
system.cpu0.commit.bw_lim_events               268425                       # number cycles where commit BW limit reached
system.cpu0.commit.commitNonSpecStalls         197961                       # The number of times commit has been forced to stall to communicate backwards
system.cpu0.commit.commitSquashedInsts       28336092                       # The number of squashed insts skipped by commit
system.cpu0.commit.committedInsts            52857620                       # Number of instructions committed
system.cpu0.commit.committedOps              52923422                       # Number of ops (including micro ops) committed
system.cpu0.commit.committed_per_cycle::samples     95080995                       # Number of insts commited each cycle
system.cpu0.commit.committed_per_cycle::mean     0.556614                       # Number of insts commited each cycle
system.cpu0.commit.committed_per_cycle::stdev     1.040224                       # Number of insts commited each cycle
system.cpu0.commit.committed_per_cycle::underflows            0      0.00%      0.00% # Number of insts commited each cycle
system.cpu0.commit.committed_per_cycle::0     65194626     68.57%     68.57% # Number of insts commited each cycle
system.cpu0.commit.committed_per_cycle::1     15704735     16.52%     85.08% # Number of insts commited each cycle
system.cpu0.commit.committed_per_cycle::2      8962767      9.43%     94.51% # Number of insts commited each cycle
system.cpu0.commit.committed_per_cycle::3      3678334      3.87%     98.38% # Number of insts commited each cycle
system.cpu0.commit.committed_per_cycle::4       595017      0.63%     99.01% # Number of insts commited each cycle
system.cpu0.commit.committed_per_cycle::5       460257      0.48%     99.49% # Number of insts commited each cycle
system.cpu0.commit.committed_per_cycle::6        88440      0.09%     99.58% # Number of insts commited each cycle
system.cpu0.commit.committed_per_cycle::7       128394      0.14%     99.72% # Number of insts commited each cycle
system.cpu0.commit.committed_per_cycle::8       268425      0.28%    100.00% # Number of insts commited each cycle
system.cpu0.commit.committed_per_cycle::overflows            0      0.00%    100.00% # Number of insts commited each cycle
system.cpu0.commit.committed_per_cycle::min_value            0                       # Number of insts commited each cycle
system.cpu0.commit.committed_per_cycle::max_value            8                       # Number of insts commited each cycle
system.cpu0.commit.committed_per_cycle::total     95080995                       # Number of insts commited each cycle
system.cpu0.commit.fp_insts                   5636177                       # Number of committed floating point instructions.
system.cpu0.commit.function_calls             1603976                       # Number of function calls committed.
system.cpu0.commit.int_insts                 50309974                       # Number of committed integer instructions.
system.cpu0.commit.loads                      5139663                       # Number of loads committed
system.cpu0.commit.membars                     131673                       # Number of memory barriers committed
system.cpu0.commit.op_class_0::No_OpClass       131682      0.25%      0.25% # Class of committed instruction
system.cpu0.commit.op_class_0::IntAlu        39934099     75.46%     75.71% # Class of committed instruction
system.cpu0.commit.op_class_0::IntMult           6136      0.01%     75.72% # Class of committed instruction
system.cpu0.commit.op_class_0::IntDiv            8240      0.02%     75.73% # Class of committed instruction
system.cpu0.commit.op_class_0::FloatAdd       1572864      2.97%     78.70% # Class of committed instruction
system.cpu0.commit.op_class_0::FloatCmp       2359302      4.46%     83.16% # Class of committed instruction
system.cpu0.commit.op_class_0::FloatCvt        851984      1.61%     84.77% # Class of committed instruction
system.cpu0.commit.op_class_0::FloatMult       786432      1.49%     86.26% # Class of committed instruction
system.cpu0.commit.op_class_0::FloatMultAcc            0      0.00%     86.26% # Class of committed instruction
system.cpu0.commit.op_class_0::FloatDiv             2      0.00%     86.26% # Class of committed instruction
system.cpu0.commit.op_class_0::FloatMisc            6      0.00%     86.26% # Class of committed instruction
system.cpu0.commit.op_class_0::FloatSqrt            0      0.00%     86.26% # Class of committed instruction
system.cpu0.commit.op_class_0::SimdAdd              0      0.00%     86.26% # Class of committed instruction
system.cpu0.commit.op_class_0::SimdAddAcc            0      0.00%     86.26% # Class of committed instruction
system.cpu0.commit.op_class_0::SimdAlu              0      0.00%     86.26% # Class of committed instruction
system.cpu0.commit.op_class_0::SimdCmp              0      0.00%     86.26% # Class of committed instruction
system.cpu0.commit.op_class_0::SimdCvt              0      0.00%     86.26% # Class of committed instruction
system.cpu0.commit.op_class_0::SimdMisc             0      0.00%     86.26% # Class of committed instruction
system.cpu0.commit.op_class_0::SimdMult             0      0.00%     86.26% # Class of committed instruction
system.cpu0.commit.op_class_0::SimdMultAcc            0      0.00%     86.26% # Class of committed instruction
system.cpu0.commit.op_class_0::SimdShift            0      0.00%     86.26% # Class of committed instruction
system.cpu0.commit.op_class_0::SimdShiftAcc            0      0.00%     86.26% # Class of committed instruction
system.cpu0.commit.op_class_0::SimdDiv              0      0.00%     86.26% # Class of committed instruction
system.cpu0.commit.op_class_0::SimdSqrt             0      0.00%     86.26% # Class of committed instruction
system.cpu0.commit.op_class_0::SimdFloatAdd            0      0.00%     86.26% # Class of committed instruction
system.cpu0.commit.op_class_0::SimdFloatAlu            0      0.00%     86.26% # Class of committed instruction
system.cpu0.commit.op_class_0::SimdFloatCmp            0      0.00%     86.26% # Class of committed instruction
system.cpu0.commit.op_class_0::SimdFloatCvt            0      0.00%     86.26% # Class of committed instruction
system.cpu0.commit.op_class_0::SimdFloatDiv            0      0.00%     86.26% # Class of committed instruction
system.cpu0.commit.op_class_0::SimdFloatMisc            0      0.00%     86.26% # Class of committed instruction
system.cpu0.commit.op_class_0::SimdFloatMult            0      0.00%     86.26% # Class of committed instruction
system.cpu0.commit.op_class_0::SimdFloatMultAcc            0      0.00%     86.26% # Class of committed instruction
system.cpu0.commit.op_class_0::SimdFloatSqrt            0      0.00%     86.26% # Class of committed instruction
system.cpu0.commit.op_class_0::SimdReduceAdd            0      0.00%     86.26% # Class of committed instruction
system.cpu0.commit.op_class_0::SimdReduceAlu            0      0.00%     86.26% # Class of committed instruction
system.cpu0.commit.op_class_0::SimdReduceCmp            0      0.00%     86.26% # Class of committed instruction
system.cpu0.commit.op_class_0::SimdFloatReduceAdd            0      0.00%     86.26% # Class of committed instruction
system.cpu0.commit.op_class_0::SimdFloatReduceCmp            0      0.00%     86.26% # Class of committed instruction
system.cpu0.commit.op_class_0::SimdAes              0      0.00%     86.26% # Class of committed instruction
system.cpu0.commit.op_class_0::SimdAesMix            0      0.00%     86.26% # Class of committed instruction
system.cpu0.commit.op_class_0::SimdSha1Hash            0      0.00%     86.26% # Class of committed instruction
system.cpu0.commit.op_class_0::SimdSha1Hash2            0      0.00%     86.26% # Class of committed instruction
system.cpu0.commit.op_class_0::SimdSha256Hash            0      0.00%     86.26% # Class of committed instruction
system.cpu0.commit.op_class_0::SimdSha256Hash2            0      0.00%     86.26% # Class of committed instruction
system.cpu0.commit.op_class_0::SimdShaSigma2            0      0.00%     86.26% # Class of committed instruction
system.cpu0.commit.op_class_0::SimdShaSigma3            0      0.00%     86.26% # Class of committed instruction
system.cpu0.commit.op_class_0::SimdPredAlu            0      0.00%     86.26% # Class of committed instruction
system.cpu0.commit.op_class_0::MemRead        5139932      9.71%     95.97% # Class of committed instruction
system.cpu0.commit.op_class_0::MemWrite       2067156      3.91%     99.88% # Class of committed instruction
system.cpu0.commit.op_class_0::FloatMemRead        65558      0.12%    100.00% # Class of committed instruction
system.cpu0.commit.op_class_0::FloatMemWrite           29      0.00%    100.00% # Class of committed instruction
system.cpu0.commit.op_class_0::IprAccess            0      0.00%    100.00% # Class of committed instruction
system.cpu0.commit.op_class_0::InstPrefetch            0      0.00%    100.00% # Class of committed instruction
system.cpu0.commit.op_class_0::total         52923422                       # Class of committed instruction
system.cpu0.commit.refs                       7272675                       # Number of memory references committed
system.cpu0.commit.swp_count                        0                       # Number of s/w prefetches committed
system.cpu0.commit.vec_insts                        0                       # Number of committed Vector instructions.
system.cpu0.committedInsts                   52857620                       # Number of Instructions Simulated
system.cpu0.committedOps                     52923422                       # Number of Ops (including micro ops) Simulated
system.cpu0.cpi                              1.893378                       # CPI: Cycles Per Instruction
system.cpu0.cpi_total                        1.893378                       # CPI: Total CPI of All Threads
system.cpu0.decode.BlockedCycles             32677772                       # Number of cycles decode is blocked
system.cpu0.decode.BranchMispred              1301917                       # Number of times decode detected a branch misprediction
system.cpu0.decode.BranchResolved            10808425                       # Number of times decode resolved a branch
system.cpu0.decode.DecodedInsts              88067777                       # Number of instructions handled by decode
system.cpu0.decode.IdleCycles                16402061                       # Number of cycles decode is idle
system.cpu0.decode.RunCycles                 47403461                       # Number of cycles decode is running
system.cpu0.decode.SquashCycles               1533818                       # Number of cycles decode is squashing
system.cpu0.decode.SquashedInsts              2641760                       # Number of squashed instructions handled by decode
system.cpu0.decode.UnblockCycles              1222220                       # Number of cycles decode is unblocking
system.cpu0.dtb.accesses                            0                       # DTB accesses
system.cpu0.dtb.hits                                0                       # DTB hits
system.cpu0.dtb.misses                              0                       # DTB misses
system.cpu0.dtb.read_accesses                       0                       # DTB read accesses
system.cpu0.dtb.read_hits                           0                       # DTB read hits
system.cpu0.dtb.read_misses                         0                       # DTB read misses
system.cpu0.dtb.write_accesses                      0                       # DTB write accesses
system.cpu0.dtb.write_hits                          0                       # DTB write hits
system.cpu0.dtb.write_misses                        0                       # DTB write misses
system.cpu0.fetch.Branches                   16860462                       # Number of branches that fetch encountered
system.cpu0.fetch.CacheLines                 12122182                       # Number of cache lines fetched
system.cpu0.fetch.Cycles                     82295063                       # Number of cycles fetch has run and was not squashing or blocked
system.cpu0.fetch.IcacheSquashes                98005                       # Number of outstanding Icache misses that were squashed
system.cpu0.fetch.IcacheWaitRetryStallCycles          132                       # Number of stall cycles due to full MSHR
system.cpu0.fetch.Insts                      99975128                       # Number of instructions fetch has processed
system.cpu0.fetch.MiscStallCycles                  75                       # Number of cycles fetch has spent waiting on interrupts, or bad addresses, or out of MSHRs
system.cpu0.fetch.PendingTrapStallCycles           12                       # Number of stall cycles due to pending traps
system.cpu0.fetch.SquashCycles                5670382                       # Number of cycles fetch has spent squashing
system.cpu0.fetch.branchRate                 0.168471                       # Number of branch fetches per cycle
system.cpu0.fetch.icacheStallCycles          14108859                       # Number of cycles fetch is stalled on an Icache miss
system.cpu0.fetch.predictedBranches          13403181                       # Number of branches that fetch has predicted taken
system.cpu0.fetch.rate                       0.998957                       # Number of inst fetches per cycle
system.cpu0.fetch.rateDist::samples          99239332                       # Number of instructions fetched each cycle (Total)
system.cpu0.fetch.rateDist::mean             1.008080                       # Number of instructions fetched each cycle (Total)
system.cpu0.fetch.rateDist::stdev            1.291591                       # Number of instructions fetched each cycle (Total)
system.cpu0.fetch.rateDist::underflows              0      0.00%      0.00% # Number of instructions fetched each cycle (Total)
system.cpu0.fetch.rateDist::0                43486295     43.82%     43.82% # Number of instructions fetched each cycle (Total)
system.cpu0.fetch.rateDist::1                32575654     32.83%     76.64% # Number of instructions fetched each cycle (Total)
system.cpu0.fetch.rateDist::2                12774922     12.87%     89.52% # Number of instructions fetched each cycle (Total)
system.cpu0.fetch.rateDist::3                 4930468      4.97%     94.49% # Number of instructions fetched each cycle (Total)
system.cpu0.fetch.rateDist::4                 2062981      2.08%     96.56% # Number of instructions fetched each cycle (Total)
system.cpu0.fetch.rateDist::5                 1588196      1.60%     98.17% # Number of instructions fetched each cycle (Total)
system.cpu0.fetch.rateDist::6                 1817138      1.83%    100.00% # Number of instructions fetched each cycle (Total)
system.cpu0.fetch.rateDist::7                     873      0.00%    100.00% # Number of instructions fetched each cycle (Total)
system.cpu0.fetch.rateDist::8                    2805      0.00%    100.00% # Number of instructions fetched each cycle (Total)
system.cpu0.fetch.rateDist::overflows               0      0.00%    100.00% # Number of instructions fetched each cycle (Total)
system.cpu0.fetch.rateDist::min_value               0                       # Number of instructions fetched each cycle (Total)
system.cpu0.fetch.rateDist::max_value               8                       # Number of instructions fetched each cycle (Total)
system.cpu0.fetch.rateDist::total            99239332                       # Number of instructions fetched each cycle (Total)
system.cpu0.fp_regfile_reads                 12471768                       # number of floating regfile reads
system.cpu0.fp_regfile_writes                 3891819                       # number of floating regfile writes
system.cpu0.idleCycles                         840135                       # Total number of cycles that the CPU has spent unscheduled due to idling
system.cpu0.iew.branchMispredicts             1703619                       # Number of branch mispredicts detected at execute
system.cpu0.iew.exec_branches                11780545                       # Number of branches executed
system.cpu0.iew.exec_nop                            0                       # number of nop insts executed
system.cpu0.iew.exec_rate                    0.746277                       # Inst execution rate
system.cpu0.iew.exec_refs                    11279321                       # number of memory reference insts executed
system.cpu0.iew.exec_stores                   2831697                       # Number of stores executed
system.cpu0.iew.exec_swp                            0                       # number of swp insts executed
system.cpu0.iew.iewBlockCycles               29598781                       # Number of cycles IEW is blocking
system.cpu0.iew.iewDispLoadInsts              8733966                       # Number of dispatched load instructions
system.cpu0.iew.iewDispNonSpecInsts             66495                       # Number of dispatched non-speculative instructions
system.cpu0.iew.iewDispSquashedInsts           427059                       # Number of squashed instructions skipped by dispatch
system.cpu0.iew.iewDispStoreInsts             3503928                       # Number of dispatched store instructions
system.cpu0.iew.iewDispatchedInsts           81259021                       # Number of instructions dispatched to IQ
system.cpu0.iew.iewExecLoadInsts              8447624                       # Number of load instructions executed
system.cpu0.iew.iewExecSquashedInsts          1466086                       # Number of squashed instructions skipped in execute
system.cpu0.iew.iewExecutedInsts             74687054                       # Number of executed instructions
system.cpu0.iew.iewIQFullEvents                180169                       # Number of times the IQ has become full, causing a stall
system.cpu0.iew.iewIdleCycles                       0                       # Number of cycles IEW is idle
system.cpu0.iew.iewLSQFullEvents                90864                       # Number of times the LSQ has become full, causing a stall
system.cpu0.iew.iewSquashCycles               1533818                       # Number of cycles IEW is squashing
system.cpu0.iew.iewUnblockCycles               521023                       # Number of cycles IEW is unblocking
system.cpu0.iew.lsq.thread0.blockedLoads            0                       # Number of blocked loads due to partial load-store forwarding
system.cpu0.iew.lsq.thread0.cacheBlocked         5639                       # Number of times an access to memory failed due to the cache being blocked
system.cpu0.iew.lsq.thread0.forwLoads          297972                       # Number of loads that had data forwarded from stores
system.cpu0.iew.lsq.thread0.ignoredResponses         2049                       # Number of memory responses ignored because the instruction is squashed
system.cpu0.iew.lsq.thread0.invAddrLoads            0                       # Number of loads ignored due to an invalid address
system.cpu0.iew.lsq.thread0.invAddrSwpfs            0                       # Number of software prefetches ignored due to an invalid address
system.cpu0.iew.lsq.thread0.memOrderViolation          386                       # Number of memory ordering violations
system.cpu0.iew.lsq.thread0.rescheduledLoads          116                       # Number of loads that were rescheduled
system.cpu0.iew.lsq.thread0.squashedLoads      3594303                       # Number of loads squashed
system.cpu0.iew.lsq.thread0.squashedStores      1370916                       # Number of stores squashed
system.cpu0.iew.memOrderViolationEvents           386                       # Number of memory order violations
system.cpu0.iew.predictedNotTakenIncorrect        73238                       # Number of branches that were predicted not taken incorrectly
system.cpu0.iew.predictedTakenIncorrect       1630381                       # Number of branches that were predicted taken incorrectly
system.cpu0.iew.wb_consumers                 57298781                       # num instructions consuming a value
system.cpu0.iew.wb_count                     74153816                       # cumulative count of insts written-back
system.cpu0.iew.wb_fanout                    0.820133                       # average fanout of values written-back
system.cpu0.iew.wb_producers                 46992601                       # num instructions producing a value
system.cpu0.iew.wb_rate                      0.740949                       # insts written-back per cycle
system.cpu0.iew.wb_sent                      74253708                       # cumulative count of insts sent to commit
system.cpu0.int_regfile_reads                85622827                       # number of integer regfile reads
system.cpu0.int_regfile_writes               56813184                       # number of integer regfile writes
system.cpu0.ipc                              0.528156                       # IPC: Instructions Per Cycle
system.cpu0.ipc_total                        0.528156                       # IPC: Total IPC of All Threads
system.cpu0.iq.FU_type_0::No_OpClass           131820      0.17%      0.17% # Type of FU issued
system.cpu0.iq.FU_type_0::IntAlu             57317776     75.27%     75.44% # Type of FU issued
system.cpu0.iq.FU_type_0::IntMult                6171      0.01%     75.45% # Type of FU issued
system.cpu0.iq.FU_type_0::IntDiv                 8250      0.01%     75.46% # Type of FU issued
system.cpu0.iq.FU_type_0::FloatAdd            1880291      2.47%     77.93% # Type of FU issued
system.cpu0.iq.FU_type_0::FloatCmp            3416805      4.49%     82.41% # Type of FU issued
system.cpu0.iq.FU_type_0::FloatCvt            1023208      1.34%     83.76% # Type of FU issued
system.cpu0.iq.FU_type_0::FloatMult            939708      1.23%     84.99% # Type of FU issued
system.cpu0.iq.FU_type_0::FloatMultAcc              0      0.00%     84.99% # Type of FU issued
system.cpu0.iq.FU_type_0::FloatDiv                  2      0.00%     84.99% # Type of FU issued
system.cpu0.iq.FU_type_0::FloatMisc                 6      0.00%     84.99% # Type of FU issued
system.cpu0.iq.FU_type_0::FloatSqrt                 0      0.00%     84.99% # Type of FU issued
system.cpu0.iq.FU_type_0::SimdAdd                   0      0.00%     84.99% # Type of FU issued
system.cpu0.iq.FU_type_0::SimdAddAcc                0      0.00%     84.99% # Type of FU issued
system.cpu0.iq.FU_type_0::SimdAlu                   0      0.00%     84.99% # Type of FU issued
system.cpu0.iq.FU_type_0::SimdCmp                   0      0.00%     84.99% # Type of FU issued
system.cpu0.iq.FU_type_0::SimdCvt                   0      0.00%     84.99% # Type of FU issued
system.cpu0.iq.FU_type_0::SimdMisc                  0      0.00%     84.99% # Type of FU issued
system.cpu0.iq.FU_type_0::SimdMult                  0      0.00%     84.99% # Type of FU issued
system.cpu0.iq.FU_type_0::SimdMultAcc               0      0.00%     84.99% # Type of FU issued
system.cpu0.iq.FU_type_0::SimdShift                 0      0.00%     84.99% # Type of FU issued
system.cpu0.iq.FU_type_0::SimdShiftAcc              0      0.00%     84.99% # Type of FU issued
system.cpu0.iq.FU_type_0::SimdDiv                   0      0.00%     84.99% # Type of FU issued
system.cpu0.iq.FU_type_0::SimdSqrt                  0      0.00%     84.99% # Type of FU issued
system.cpu0.iq.FU_type_0::SimdFloatAdd              0      0.00%     84.99% # Type of FU issued
system.cpu0.iq.FU_type_0::SimdFloatAlu              0      0.00%     84.99% # Type of FU issued
system.cpu0.iq.FU_type_0::SimdFloatCmp              0      0.00%     84.99% # Type of FU issued
system.cpu0.iq.FU_type_0::SimdFloatCvt              0      0.00%     84.99% # Type of FU issued
system.cpu0.iq.FU_type_0::SimdFloatDiv              0      0.00%     84.99% # Type of FU issued
system.cpu0.iq.FU_type_0::SimdFloatMisc             0      0.00%     84.99% # Type of FU issued
system.cpu0.iq.FU_type_0::SimdFloatMult             0      0.00%     84.99% # Type of FU issued
system.cpu0.iq.FU_type_0::SimdFloatMultAcc            0      0.00%     84.99% # Type of FU issued
system.cpu0.iq.FU_type_0::SimdFloatSqrt             0      0.00%     84.99% # Type of FU issued
system.cpu0.iq.FU_type_0::SimdReduceAdd             0      0.00%     84.99% # Type of FU issued
system.cpu0.iq.FU_type_0::SimdReduceAlu             0      0.00%     84.99% # Type of FU issued
system.cpu0.iq.FU_type_0::SimdReduceCmp             0      0.00%     84.99% # Type of FU issued
system.cpu0.iq.FU_type_0::SimdFloatReduceAdd            0      0.00%     84.99% # Type of FU issued
system.cpu0.iq.FU_type_0::SimdFloatReduceCmp            0      0.00%     84.99% # Type of FU issued
system.cpu0.iq.FU_type_0::SimdAes                   0      0.00%     84.99% # Type of FU issued
system.cpu0.iq.FU_type_0::SimdAesMix                0      0.00%     84.99% # Type of FU issued
system.cpu0.iq.FU_type_0::SimdSha1Hash              0      0.00%     84.99% # Type of FU issued
system.cpu0.iq.FU_type_0::SimdSha1Hash2             0      0.00%     84.99% # Type of FU issued
system.cpu0.iq.FU_type_0::SimdSha256Hash            0      0.00%     84.99% # Type of FU issued
system.cpu0.iq.FU_type_0::SimdSha256Hash2            0      0.00%     84.99% # Type of FU issued
system.cpu0.iq.FU_type_0::SimdShaSigma2             0      0.00%     84.99% # Type of FU issued
system.cpu0.iq.FU_type_0::SimdShaSigma3             0      0.00%     84.99% # Type of FU issued
system.cpu0.iq.FU_type_0::SimdPredAlu               0      0.00%     84.99% # Type of FU issued
system.cpu0.iq.FU_type_0::MemRead             8541319     11.22%     96.21% # Type of FU issued
system.cpu0.iq.FU_type_0::MemWrite            2821606      3.71%     99.91% # Type of FU issued
system.cpu0.iq.FU_type_0::FloatMemRead          66150      0.09%    100.00% # Type of FU issued
system.cpu0.iq.FU_type_0::FloatMemWrite            29      0.00%    100.00% # Type of FU issued
system.cpu0.iq.FU_type_0::IprAccess                 0      0.00%    100.00% # Type of FU issued
system.cpu0.iq.FU_type_0::InstPrefetch              0      0.00%    100.00% # Type of FU issued
system.cpu0.iq.FU_type_0::total              76153141                       # Type of FU issued
system.cpu0.iq.fp_alu_accesses                7326541                       # Number of floating point alu accesses
system.cpu0.iq.fp_inst_queue_reads           14652740                       # Number of floating instruction queue reads
system.cpu0.iq.fp_inst_queue_wakeup_accesses      7308521                       # Number of floating instruction queue wakeup accesses
system.cpu0.iq.fp_inst_queue_writes           9235661                       # Number of floating instruction queue writes
system.cpu0.iq.fu_busy_cnt                     472546                       # FU busy when requested
system.cpu0.iq.fu_busy_rate                  0.006205                       # FU busy rate (busy events/executed inst)
system.cpu0.iq.fu_full::No_OpClass                  0      0.00%      0.00% # attempts to use FU when none available
system.cpu0.iq.fu_full::IntAlu                 432547     91.54%     91.54% # attempts to use FU when none available
system.cpu0.iq.fu_full::IntMult                  5164      1.09%     92.63% # attempts to use FU when none available
system.cpu0.iq.fu_full::IntDiv                  10634      2.25%     94.88% # attempts to use FU when none available
system.cpu0.iq.fu_full::FloatAdd                   76      0.02%     94.89% # attempts to use FU when none available
system.cpu0.iq.fu_full::FloatCmp                  135      0.03%     94.92% # attempts to use FU when none available
system.cpu0.iq.fu_full::FloatCvt                  125      0.03%     94.95% # attempts to use FU when none available
system.cpu0.iq.fu_full::FloatMult                   0      0.00%     94.95% # attempts to use FU when none available
system.cpu0.iq.fu_full::FloatMultAcc                0      0.00%     94.95% # attempts to use FU when none available
system.cpu0.iq.fu_full::FloatDiv                    0      0.00%     94.95% # attempts to use FU when none available
system.cpu0.iq.fu_full::FloatMisc                   0      0.00%     94.95% # attempts to use FU when none available
system.cpu0.iq.fu_full::FloatSqrt                   0      0.00%     94.95% # attempts to use FU when none available
system.cpu0.iq.fu_full::SimdAdd                     0      0.00%     94.95% # attempts to use FU when none available
system.cpu0.iq.fu_full::SimdAddAcc                  0      0.00%     94.95% # attempts to use FU when none available
system.cpu0.iq.fu_full::SimdAlu                     0      0.00%     94.95% # attempts to use FU when none available
system.cpu0.iq.fu_full::SimdCmp                     0      0.00%     94.95% # attempts to use FU when none available
system.cpu0.iq.fu_full::SimdCvt                     0      0.00%     94.95% # attempts to use FU when none available
system.cpu0.iq.fu_full::SimdMisc                    0      0.00%     94.95% # attempts to use FU when none available
system.cpu0.iq.fu_full::SimdMult                    0      0.00%     94.95% # attempts to use FU when none available
system.cpu0.iq.fu_full::SimdMultAcc                 0      0.00%     94.95% # attempts to use FU when none available
system.cpu0.iq.fu_full::SimdShift                   0      0.00%     94.95% # attempts to use FU when none available
system.cpu0.iq.fu_full::SimdShiftAcc                0      0.00%     94.95% # attempts to use FU when none available
system.cpu0.iq.fu_full::SimdDiv                     0      0.00%     94.95% # attempts to use FU when none available
system.cpu0.iq.fu_full::SimdSqrt                    0      0.00%     94.95% # attempts to use FU when none available
system.cpu0.iq.fu_full::SimdFloatAdd                0      0.00%     94.95% # attempts to use FU when none available
system.cpu0.iq.fu_full::SimdFloatAlu                0      0.00%     94.95% # attempts to use FU when none available
system.cpu0.iq.fu_full::SimdFloatCmp                0      0.00%     94.95% # attempts to use FU when none available
system.cpu0.iq.fu_full::SimdFloatCvt                0      0.00%     94.95% # attempts to use FU when none available
system.cpu0.iq.fu_full::SimdFloatDiv                0      0.00%     94.95% # attempts to use FU when none available
system.cpu0.iq.fu_full::SimdFloatMisc               0      0.00%     94.95% # attempts to use FU when none available
system.cpu0.iq.fu_full::SimdFloatMult               0      0.00%     94.95% # attempts to use FU when none available
system.cpu0.iq.fu_full::SimdFloatMultAcc            0      0.00%     94.95% # attempts to use FU when none available
system.cpu0.iq.fu_full::SimdFloatSqrt               0      0.00%     94.95% # attempts to use FU when none available
system.cpu0.iq.fu_full::SimdReduceAdd               0      0.00%     94.95% # attempts to use FU when none available
system.cpu0.iq.fu_full::SimdReduceAlu               0      0.00%     94.95% # attempts to use FU when none available
system.cpu0.iq.fu_full::SimdReduceCmp               0      0.00%     94.95% # attempts to use FU when none available
system.cpu0.iq.fu_full::SimdFloatReduceAdd            0      0.00%     94.95% # attempts to use FU when none available
system.cpu0.iq.fu_full::SimdFloatReduceCmp            0      0.00%     94.95% # attempts to use FU when none available
system.cpu0.iq.fu_full::SimdAes                     0      0.00%     94.95% # attempts to use FU when none available
system.cpu0.iq.fu_full::SimdAesMix                  0      0.00%     94.95% # attempts to use FU when none available
system.cpu0.iq.fu_full::SimdSha1Hash                0      0.00%     94.95% # attempts to use FU when none available
system.cpu0.iq.fu_full::SimdSha1Hash2               0      0.00%     94.95% # attempts to use FU when none available
system.cpu0.iq.fu_full::SimdSha256Hash              0      0.00%     94.95% # attempts to use FU when none available
system.cpu0.iq.fu_full::SimdSha256Hash2             0      0.00%     94.95% # attempts to use FU when none available
system.cpu0.iq.fu_full::SimdShaSigma2               0      0.00%     94.95% # attempts to use FU when none available
system.cpu0.iq.fu_full::SimdShaSigma3               0      0.00%     94.95% # attempts to use FU when none available
system.cpu0.iq.fu_full::SimdPredAlu                 0      0.00%     94.95% # attempts to use FU when none available
system.cpu0.iq.fu_full::MemRead                 21822      4.62%     99.57% # attempts to use FU when none available
system.cpu0.iq.fu_full::MemWrite                 2037      0.43%    100.00% # attempts to use FU when none available
system.cpu0.iq.fu_full::FloatMemRead                2      0.00%    100.00% # attempts to use FU when none available
system.cpu0.iq.fu_full::FloatMemWrite               4      0.00%    100.00% # attempts to use FU when none available
system.cpu0.iq.fu_full::IprAccess                   0      0.00%    100.00% # attempts to use FU when none available
system.cpu0.iq.fu_full::InstPrefetch                0      0.00%    100.00% # attempts to use FU when none available
system.cpu0.iq.int_alu_accesses              69167326                       # Number of integer alu accesses
system.cpu0.iq.int_inst_queue_reads         237721352                       # Number of integer instruction queue reads
system.cpu0.iq.int_inst_queue_wakeup_accesses     66845295                       # Number of integer instruction queue wakeup accesses
system.cpu0.iq.int_inst_queue_writes        100359193                       # Number of integer instruction queue writes
system.cpu0.iq.iqInstsAdded                  81060736                       # Number of instructions added to the IQ (excludes non-spec)
system.cpu0.iq.iqInstsIssued                 76153141                       # Number of instructions issued
system.cpu0.iq.iqNonSpecInstsAdded             198285                       # Number of non-speculative instructions added to the IQ
system.cpu0.iq.iqSquashedInstsExamined       28335595                       # Number of squashed instructions iterated over during squash; mainly for profiling
system.cpu0.iq.iqSquashedInstsIssued           355933                       # Number of squashed instructions issued
system.cpu0.iq.iqSquashedNonSpecRemoved           324                       # Number of squashed non-spec instructions that were removed
system.cpu0.iq.iqSquashedOperandsExamined      8515477                       # Number of squashed operands that are examined and possibly removed from graph
system.cpu0.iq.issued_per_cycle::samples     99239332                       # Number of insts issued each cycle
system.cpu0.iq.issued_per_cycle::mean        0.767369                       # Number of insts issued each cycle
system.cpu0.iq.issued_per_cycle::stdev       1.154841                       # Number of insts issued each cycle
system.cpu0.iq.issued_per_cycle::underflows            0      0.00%      0.00% # Number of insts issued each cycle
system.cpu0.iq.issued_per_cycle::0           55227851     55.65%     55.65% # Number of insts issued each cycle
system.cpu0.iq.issued_per_cycle::1           25537415     25.73%     81.38% # Number of insts issued each cycle
system.cpu0.iq.issued_per_cycle::2           11689053     11.78%     93.16% # Number of insts issued each cycle
system.cpu0.iq.issued_per_cycle::3            2943815      2.97%     96.13% # Number of insts issued each cycle
system.cpu0.iq.issued_per_cycle::4            1933903      1.95%     98.08% # Number of insts issued each cycle
system.cpu0.iq.issued_per_cycle::5            1145612      1.15%     99.23% # Number of insts issued each cycle
system.cpu0.iq.issued_per_cycle::6             467367      0.47%     99.70% # Number of insts issued each cycle
system.cpu0.iq.issued_per_cycle::7             216227      0.22%     99.92% # Number of insts issued each cycle
system.cpu0.iq.issued_per_cycle::8              78089      0.08%    100.00% # Number of insts issued each cycle
system.cpu0.iq.issued_per_cycle::overflows            0      0.00%    100.00% # Number of insts issued each cycle
system.cpu0.iq.issued_per_cycle::min_value            0                       # Number of insts issued each cycle
system.cpu0.iq.issued_per_cycle::max_value            8                       # Number of insts issued each cycle
system.cpu0.iq.issued_per_cycle::total       99239332                       # Number of insts issued each cycle
system.cpu0.iq.rate                          0.760927                       # Inst issue rate
system.cpu0.iq.vec_alu_accesses                     0                       # Number of vector alu accesses
system.cpu0.iq.vec_inst_queue_reads                 0                       # Number of vector instruction queue reads
system.cpu0.iq.vec_inst_queue_wakeup_accesses            0                       # Number of vector instruction queue wakeup accesses
system.cpu0.iq.vec_inst_queue_writes                0                       # Number of vector instruction queue writes
system.cpu0.itb.accesses                            0                       # DTB accesses
system.cpu0.itb.hits                                0                       # DTB hits
system.cpu0.itb.misses                              0                       # DTB misses
system.cpu0.itb.read_accesses                       0                       # DTB read accesses
system.cpu0.itb.read_hits                           0                       # DTB read hits
system.cpu0.itb.read_misses                         0                       # DTB read misses
system.cpu0.itb.write_accesses                      0                       # DTB write accesses
system.cpu0.itb.write_hits                          0                       # DTB write hits
system.cpu0.itb.write_misses                        0                       # DTB write misses
system.cpu0.memDep0.conflictingLoads           505364                       # Number of conflicting loads.
system.cpu0.memDep0.conflictingStores          159613                       # Number of conflicting stores.
system.cpu0.memDep0.insertedLoads             8733966                       # Number of loads inserted to the mem dependence unit.
system.cpu0.memDep0.insertedStores            3503928                       # Number of stores inserted to the mem dependence unit.
system.cpu0.misc_regfile_reads               11002482                       # number of misc regfile reads
system.cpu0.misc_regfile_writes               5570590                       # number of misc regfile writes
system.cpu0.numCycles                       100079467                       # number of cpu cycles simulated
system.cpu0.numWorkItemsCompleted                   0                       # number of work items this cpu completed
system.cpu0.numWorkItemsStarted                     0                       # number of work items this cpu started
system.cpu0.quiesceCycles                     1270625                       # Total number of cycles that CPU has spent quiesced or waiting for an interrupt
system.cpu0.rename.BlockCycles               31256058                       # Number of cycles rename is blocking
system.cpu0.rename.CommittedMaps             43418193                       # Number of HB maps that are committed
system.cpu0.rename.IQFullEvents               1086294                       # Number of times rename has blocked due to IQ full
system.cpu0.rename.IdleCycles                19236345                       # Number of cycles rename is idle
system.cpu0.rename.LQFullEvents                114116                       # Number of times rename has blocked due to LQ full
system.cpu0.rename.ROBFullEvents                 6643                       # Number of times rename has blocked due to ROB full
system.cpu0.rename.RenameLookups            112159418                       # Number of register rename lookups that rename has made
system.cpu0.rename.RenamedInsts              85197025                       # Number of instructions processed by rename
system.cpu0.rename.RenamedOperands           69014064                       # Number of destination operands rename has renamed
system.cpu0.rename.RunCycles                 45563573                       # Number of cycles rename is running
system.cpu0.rename.SQFullEvents                124343                       # Number of times rename has blocked due to SQ full
system.cpu0.rename.SquashCycles               1533818                       # Number of cycles rename is squashing
system.cpu0.rename.UnblockCycles              1625299                       # Number of cycles rename is unblocking
system.cpu0.rename.UndoneMaps                25595866                       # Number of HB maps that are undone due to squashing
system.cpu0.rename.fp_rename_lookups         12764558                       # Number of floating rename lookups
system.cpu0.rename.int_rename_lookups        99394860                       # Number of integer rename lookups
system.cpu0.rename.serializeStallCycles         24239                       # count of cycles rename stalled for serializing inst
system.cpu0.rename.serializingInsts               557                       # count of serializing insts renamed
system.cpu0.rename.skidInsts                  2399617                       # count of insts added to the skid buffer
system.cpu0.rename.tempSerializingInsts           555                       # count of temporary serializing insts renamed
system.cpu0.rob.rob_reads                   176070394                       # The number of ROB reads
system.cpu0.rob.rob_writes                  166677718                       # The number of ROB writes
system.cpu0.timesIdled                          10768                       # Number of times that the entire CPU went into an idle state and unscheduled itself
system.cpu0.workload.numSyscalls                  136                       # Number of system calls
system.cpu1.branchPred.BTBCorrect                   0                       # Number of correct BTB predictions (this stat may not work properly.
system.cpu1.branchPred.BTBHitPct            94.971005                       # BTB Hit Percentage
system.cpu1.branchPred.BTBHits                1015713                       # Number of BTB hits
system.cpu1.branchPred.BTBLookups             1069498                       # Number of BTB lookups
system.cpu1.branchPred.RASInCorrect                 0                       # Number of incorrect RAS predictions.
system.cpu1.branchPred.condIncorrect           183385                       # Number of conditional branches incorrect
system.cpu1.branchPred.condPredicted          1325462                       # Number of conditional branches predicted
system.cpu1.branchPred.indirectHits             11464                       # Number of indirect target hits.
system.cpu1.branchPred.indirectLookups          15191                       # Number of indirect predictor lookups.
system.cpu1.branchPred.indirectMisses            3727                       # Number of indirect misses.
system.cpu1.branchPred.lookups                1636915                       # Number of BP lookups
system.cpu1.branchPred.usedRAS                      0                       # Number of times the RAS was used to get a target.
system.cpu1.branchPredindirectMispredicted         1835                       # Number of mispredicted indirect branches.
system.cpu1.commit.amos                         65654                       # Number of atomic instructions committed
system.cpu1.commit.branchMispredicts           175160                       # The number of times a branch was mispredicted
system.cpu1.commit.branches                    933007                       # Number of branches committed
system.cpu1.commit.bw_lim_events                23864                       # number cycles where commit BW limit reached
system.cpu1.commit.commitNonSpecStalls         197225                       # The number of times commit has been forced to stall to communicate backwards
system.cpu1.commit.commitSquashedInsts        1541247                       # The number of squashed insts skipped by commit
system.cpu1.commit.committedInsts             3821167                       # Number of instructions committed
system.cpu1.commit.committedOps               3886887                       # Number of ops (including micro ops) committed
system.cpu1.commit.committed_per_cycle::samples     24105311                       # Number of insts commited each cycle
system.cpu1.commit.committed_per_cycle::mean     0.161246                       # Number of insts commited each cycle
system.cpu1.commit.committed_per_cycle::stdev     0.645079                       # Number of insts commited each cycle
system.cpu1.commit.committed_per_cycle::underflows            0      0.00%      0.00% # Number of insts commited each cycle
system.cpu1.commit.committed_per_cycle::0     22073720     91.57%     91.57% # Number of insts commited each cycle
system.cpu1.commit.committed_per_cycle::1      1071575      4.45%     96.02% # Number of insts commited each cycle
system.cpu1.commit.committed_per_cycle::2       393820      1.63%     97.65% # Number of insts commited each cycle
system.cpu1.commit.committed_per_cycle::3       383724      1.59%     99.24% # Number of insts commited each cycle
system.cpu1.commit.committed_per_cycle::4       120205      0.50%     99.74% # Number of insts commited each cycle
system.cpu1.commit.committed_per_cycle::5        28807      0.12%     99.86% # Number of insts commited each cycle
system.cpu1.commit.committed_per_cycle::6         6439      0.03%     99.89% # Number of insts commited each cycle
system.cpu1.commit.committed_per_cycle::7         3157      0.01%     99.90% # Number of insts commited each cycle
system.cpu1.commit.committed_per_cycle::8        23864      0.10%    100.00% # Number of insts commited each cycle
system.cpu1.commit.committed_per_cycle::overflows            0      0.00%    100.00% # Number of insts commited each cycle
system.cpu1.commit.committed_per_cycle::min_value            0                       # Number of insts commited each cycle
system.cpu1.commit.committed_per_cycle::max_value            8                       # Number of insts commited each cycle
system.cpu1.commit.committed_per_cycle::total     24105311                       # Number of insts commited each cycle
system.cpu1.commit.fp_insts                        24                       # Number of committed floating point instructions.
system.cpu1.commit.function_calls               17208                       # Number of function calls committed.
system.cpu1.commit.int_insts                  3604155                       # Number of committed integer instructions.
system.cpu1.commit.loads                       989421                       # Number of loads committed
system.cpu1.commit.membars                     131326                       # Number of memory barriers committed
system.cpu1.commit.op_class_0::No_OpClass       131326      3.38%      3.38% # Class of committed instruction
system.cpu1.commit.op_class_0::IntAlu         2345119     60.33%     63.71% # Class of committed instruction
system.cpu1.commit.op_class_0::IntMult            638      0.02%     63.73% # Class of committed instruction
system.cpu1.commit.op_class_0::IntDiv              30      0.00%     63.73% # Class of committed instruction
system.cpu1.commit.op_class_0::FloatAdd             0      0.00%     63.73% # Class of committed instruction
system.cpu1.commit.op_class_0::FloatCmp             0      0.00%     63.73% # Class of committed instruction
system.cpu1.commit.op_class_0::FloatCvt             0      0.00%     63.73% # Class of committed instruction
system.cpu1.commit.op_class_0::FloatMult            0      0.00%     63.73% # Class of committed instruction
system.cpu1.commit.op_class_0::FloatMultAcc            0      0.00%     63.73% # Class of committed instruction
system.cpu1.commit.op_class_0::FloatDiv             0      0.00%     63.73% # Class of committed instruction
system.cpu1.commit.op_class_0::FloatMisc            0      0.00%     63.73% # Class of committed instruction
system.cpu1.commit.op_class_0::FloatSqrt            0      0.00%     63.73% # Class of committed instruction
system.cpu1.commit.op_class_0::SimdAdd              0      0.00%     63.73% # Class of committed instruction
system.cpu1.commit.op_class_0::SimdAddAcc            0      0.00%     63.73% # Class of committed instruction
system.cpu1.commit.op_class_0::SimdAlu              0      0.00%     63.73% # Class of committed instruction
system.cpu1.commit.op_class_0::SimdCmp              0      0.00%     63.73% # Class of committed instruction
system.cpu1.commit.op_class_0::SimdCvt              0      0.00%     63.73% # Class of committed instruction
system.cpu1.commit.op_class_0::SimdMisc             0      0.00%     63.73% # Class of committed instruction
system.cpu1.commit.op_class_0::SimdMult             0      0.00%     63.73% # Class of committed instruction
system.cpu1.commit.op_class_0::SimdMultAcc            0      0.00%     63.73% # Class of committed instruction
system.cpu1.commit.op_class_0::SimdShift            0      0.00%     63.73% # Class of committed instruction
system.cpu1.commit.op_class_0::SimdShiftAcc            0      0.00%     63.73% # Class of committed instruction
system.cpu1.commit.op_class_0::SimdDiv              0      0.00%     63.73% # Class of committed instruction
system.cpu1.commit.op_class_0::SimdSqrt             0      0.00%     63.73% # Class of committed instruction
system.cpu1.commit.op_class_0::SimdFloatAdd            0      0.00%     63.73% # Class of committed instruction
system.cpu1.commit.op_class_0::SimdFloatAlu            0      0.00%     63.73% # Class of committed instruction
system.cpu1.commit.op_class_0::SimdFloatCmp            0      0.00%     63.73% # Class of committed instruction
system.cpu1.commit.op_class_0::SimdFloatCvt            0      0.00%     63.73% # Class of committed instruction
system.cpu1.commit.op_class_0::SimdFloatDiv            0      0.00%     63.73% # Class of committed instruction
system.cpu1.commit.op_class_0::SimdFloatMisc            0      0.00%     63.73% # Class of committed instruction
system.cpu1.commit.op_class_0::SimdFloatMult            0      0.00%     63.73% # Class of committed instruction
system.cpu1.commit.op_class_0::SimdFloatMultAcc            0      0.00%     63.73% # Class of committed instruction
system.cpu1.commit.op_class_0::SimdFloatSqrt            0      0.00%     63.73% # Class of committed instruction
system.cpu1.commit.op_class_0::SimdReduceAdd            0      0.00%     63.73% # Class of committed instruction
system.cpu1.commit.op_class_0::SimdReduceAlu            0      0.00%     63.73% # Class of committed instruction
system.cpu1.commit.op_class_0::SimdReduceCmp            0      0.00%     63.73% # Class of committed instruction
system.cpu1.commit.op_class_0::SimdFloatReduceAdd            0      0.00%     63.73% # Class of committed instruction
system.cpu1.commit.op_class_0::SimdFloatReduceCmp            0      0.00%     63.73% # Class of committed instruction
system.cpu1.commit.op_class_0::SimdAes              0      0.00%     63.73% # Class of committed instruction
system.cpu1.commit.op_class_0::SimdAesMix            0      0.00%     63.73% # Class of committed instruction
system.cpu1.commit.op_class_0::SimdSha1Hash            0      0.00%     63.73% # Class of committed instruction
system.cpu1.commit.op_class_0::SimdSha1Hash2            0      0.00%     63.73% # Class of committed instruction
system.cpu1.commit.op_class_0::SimdSha256Hash            0      0.00%     63.73% # Class of committed instruction
system.cpu1.commit.op_class_0::SimdSha256Hash2            0      0.00%     63.73% # Class of committed instruction
system.cpu1.commit.op_class_0::SimdShaSigma2            0      0.00%     63.73% # Class of committed instruction
system.cpu1.commit.op_class_0::SimdShaSigma3            0      0.00%     63.73% # Class of committed instruction
system.cpu1.commit.op_class_0::SimdPredAlu            0      0.00%     63.73% # Class of committed instruction
system.cpu1.commit.op_class_0::MemRead        1055069     27.14%     90.87% # Class of committed instruction
system.cpu1.commit.op_class_0::MemWrite        354681      9.13%    100.00% # Class of committed instruction
system.cpu1.commit.op_class_0::FloatMemRead            6      0.00%    100.00% # Class of committed instruction
system.cpu1.commit.op_class_0::FloatMemWrite           18      0.00%    100.00% # Class of committed instruction
system.cpu1.commit.op_class_0::IprAccess            0      0.00%    100.00% # Class of committed instruction
system.cpu1.commit.op_class_0::InstPrefetch            0      0.00%    100.00% # Class of committed instruction
system.cpu1.commit.op_class_0::total          3886887                       # Class of committed instruction
system.cpu1.commit.refs                       1409774                       # Number of memory references committed
system.cpu1.commit.swp_count                        0                       # Number of s/w prefetches committed
system.cpu1.commit.vec_insts                        0                       # Number of committed Vector instructions.
system.cpu1.committedInsts                    3821167                       # Number of Instructions Simulated
system.cpu1.committedOps                      3886887                       # Number of Ops (including micro ops) Simulated
system.cpu1.cpi                              6.412816                       # CPI: Cycles Per Instruction
system.cpu1.cpi_total                        6.412816                       # CPI: Total CPI of All Threads
system.cpu1.decode.BlockedCycles             19681171                       # Number of cycles decode is blocked
system.cpu1.decode.BranchMispred                 8415                       # Number of times decode detected a branch misprediction
system.cpu1.decode.BranchResolved              939666                       # Number of times decode resolved a branch
system.cpu1.decode.DecodedInsts               6107530                       # Number of instructions handled by decode
system.cpu1.decode.IdleCycles                 1046211                       # Number of cycles decode is idle
system.cpu1.decode.RunCycles                  3291761                       # Number of cycles decode is running
system.cpu1.decode.SquashCycles                175372                       # Number of cycles decode is squashing
system.cpu1.decode.SquashedInsts                14974                       # Number of squashed instructions handled by decode
system.cpu1.decode.UnblockCycles               196764                       # Number of cycles decode is unblocking
system.cpu1.dtb.accesses                            0                       # DTB accesses
system.cpu1.dtb.hits                                0                       # DTB hits
system.cpu1.dtb.misses                              0                       # DTB misses
system.cpu1.dtb.read_accesses                       0                       # DTB read accesses
system.cpu1.dtb.read_hits                           0                       # DTB read hits
system.cpu1.dtb.read_misses                         0                       # DTB read misses
system.cpu1.dtb.write_accesses                      0                       # DTB write accesses
system.cpu1.dtb.write_hits                          0                       # DTB write hits
system.cpu1.dtb.write_misses                        0                       # DTB write misses
system.cpu1.fetch.Branches                    1636915                       # Number of branches that fetch encountered
system.cpu1.fetch.CacheLines                   803644                       # Number of cache lines fetched
system.cpu1.fetch.Cycles                     23292026                       # Number of cycles fetch has run and was not squashing or blocked
system.cpu1.fetch.IcacheSquashes                55654                       # Number of outstanding Icache misses that were squashed
system.cpu1.fetch.IcacheWaitRetryStallCycles           38                       # Number of stall cycles due to full MSHR
system.cpu1.fetch.Insts                       6396807                       # Number of instructions fetch has processed
system.cpu1.fetch.MiscStallCycles                   3                       # Number of cycles fetch has spent waiting on interrupts, or bad addresses, or out of MSHRs
system.cpu1.fetch.SquashCycles                 367194                       # Number of cycles fetch has spent squashing
system.cpu1.fetch.branchRate                 0.066801                       # Number of branch fetches per cycle
system.cpu1.fetch.icacheStallCycles            915615                       # Number of cycles fetch is stalled on an Icache miss
system.cpu1.fetch.predictedBranches           1027177                       # Number of branches that fetch has predicted taken
system.cpu1.fetch.rate                       0.261047                       # Number of inst fetches per cycle
system.cpu1.fetch.rateDist::samples          24391279                       # Number of instructions fetched each cycle (Total)
system.cpu1.fetch.rateDist::mean             0.264966                       # Number of instructions fetched each cycle (Total)
system.cpu1.fetch.rateDist::stdev            0.667915                       # Number of instructions fetched each cycle (Total)
system.cpu1.fetch.rateDist::underflows              0      0.00%      0.00% # Number of instructions fetched each cycle (Total)
system.cpu1.fetch.rateDist::0                19910554     81.63%     81.63% # Number of instructions fetched each cycle (Total)
system.cpu1.fetch.rateDist::1                 3199535     13.12%     94.75% # Number of instructions fetched each cycle (Total)
system.cpu1.fetch.rateDist::2                  842533      3.45%     98.20% # Number of instructions fetched each cycle (Total)
system.cpu1.fetch.rateDist::3                  271915      1.11%     99.32% # Number of instructions fetched each cycle (Total)
system.cpu1.fetch.rateDist::4                   90303      0.37%     99.69% # Number of instructions fetched each cycle (Total)
system.cpu1.fetch.rateDist::5                   60973      0.25%     99.94% # Number of instructions fetched each cycle (Total)
system.cpu1.fetch.rateDist::6                   13478      0.06%     99.99% # Number of instructions fetched each cycle (Total)
system.cpu1.fetch.rateDist::7                     325      0.00%     99.99% # Number of instructions fetched each cycle (Total)
system.cpu1.fetch.rateDist::8                    1663      0.01%    100.00% # Number of instructions fetched each cycle (Total)
system.cpu1.fetch.rateDist::overflows               0      0.00%    100.00% # Number of instructions fetched each cycle (Total)
system.cpu1.fetch.rateDist::min_value               0                       # Number of instructions fetched each cycle (Total)
system.cpu1.fetch.rateDist::max_value               8                       # Number of instructions fetched each cycle (Total)
system.cpu1.fetch.rateDist::total            24391279                       # Number of instructions fetched each cycle (Total)
system.cpu1.fp_regfile_reads                       18                       # number of floating regfile reads
system.cpu1.fp_regfile_writes                      12                       # number of floating regfile writes
system.cpu1.idleCycles                         113163                       # Total number of cycles that the CPU has spent unscheduled due to idling
system.cpu1.iew.branchMispredicts              181952                       # Number of branch mispredicts detected at execute
system.cpu1.iew.exec_branches                 1123249                       # Number of branches executed
system.cpu1.iew.exec_nop                            0                       # number of nop insts executed
system.cpu1.iew.exec_rate                    0.198591                       # Inst execution rate
system.cpu1.iew.exec_refs                     1699513                       # number of memory reference insts executed
system.cpu1.iew.exec_stores                    526085                       # Number of stores executed
system.cpu1.iew.exec_swp                            0                       # number of swp insts executed
system.cpu1.iew.iewBlockCycles               18055176                       # Number of cycles IEW is blocking
system.cpu1.iew.iewDispLoadInsts              1313258                       # Number of dispatched load instructions
system.cpu1.iew.iewDispNonSpecInsts             66057                       # Number of dispatched non-speculative instructions
system.cpu1.iew.iewDispSquashedInsts           165217                       # Number of squashed instructions skipped by dispatch
system.cpu1.iew.iewDispStoreInsts              616555                       # Number of dispatched store instructions
system.cpu1.iew.iewDispatchedInsts            5427617                       # Number of instructions dispatched to IQ
system.cpu1.iew.iewExecLoadInsts              1173428                       # Number of load instructions executed
system.cpu1.iew.iewExecSquashedInsts           222330                       # Number of squashed instructions skipped in execute
system.cpu1.iew.iewExecutedInsts              4866364                       # Number of executed instructions
system.cpu1.iew.iewIQFullEvents                 45113                       # Number of times the IQ has become full, causing a stall
system.cpu1.iew.iewIdleCycles                       0                       # Number of cycles IEW is idle
system.cpu1.iew.iewLSQFullEvents                59161                       # Number of times the LSQ has become full, causing a stall
system.cpu1.iew.iewSquashCycles                175372                       # Number of cycles IEW is squashing
system.cpu1.iew.iewUnblockCycles               218481                       # Number of cycles IEW is unblocking
system.cpu1.iew.lsq.thread0.blockedLoads            0                       # Number of blocked loads due to partial load-store forwarding
system.cpu1.iew.lsq.thread0.cacheBlocked         3206                       # Number of times an access to memory failed due to the cache being blocked
system.cpu1.iew.lsq.thread0.forwLoads           39592                       # Number of loads that had data forwarded from stores
system.cpu1.iew.lsq.thread0.ignoredResponses         1925                       # Number of memory responses ignored because the instruction is squashed
system.cpu1.iew.lsq.thread0.invAddrLoads            0                       # Number of loads ignored due to an invalid address
system.cpu1.iew.lsq.thread0.invAddrSwpfs            0                       # Number of software prefetches ignored due to an invalid address
system.cpu1.iew.lsq.thread0.memOrderViolation          342                       # Number of memory ordering violations
system.cpu1.iew.lsq.thread0.rescheduledLoads          113                       # Number of loads that were rescheduled
system.cpu1.iew.lsq.thread0.squashedLoads       323837                       # Number of loads squashed
system.cpu1.iew.lsq.thread0.squashedStores       196202                       # Number of stores squashed
system.cpu1.iew.memOrderViolationEvents           342                       # Number of memory order violations
system.cpu1.iew.predictedNotTakenIncorrect        86922                       # Number of branches that were predicted not taken incorrectly
system.cpu1.iew.predictedTakenIncorrect         95030                       # Number of branches that were predicted taken incorrectly
system.cpu1.iew.wb_consumers                  2210967                       # num instructions consuming a value
system.cpu1.iew.wb_count                      4760450                       # cumulative count of insts written-back
system.cpu1.iew.wb_fanout                    0.785156                       # average fanout of values written-back
system.cpu1.iew.wb_producers                  1735954                       # num instructions producing a value
system.cpu1.iew.wb_rate                      0.194269                       # insts written-back per cycle
system.cpu1.iew.wb_sent                       4766222                       # cumulative count of insts sent to commit
system.cpu1.int_regfile_reads                 6108111                       # number of integer regfile reads
system.cpu1.int_regfile_writes                3061885                       # number of integer regfile writes
system.cpu1.ipc                              0.155938                       # IPC: Instructions Per Cycle
system.cpu1.ipc_total                        0.155938                       # IPC: Total IPC of All Threads
system.cpu1.iq.FU_type_0::No_OpClass           131413      2.58%      2.58% # Type of FU issued
system.cpu1.iq.FU_type_0::IntAlu              3175857     62.41%     64.99% # Type of FU issued
system.cpu1.iq.FU_type_0::IntMult                 652      0.01%     65.01% # Type of FU issued
system.cpu1.iq.FU_type_0::IntDiv                   30      0.00%     65.01% # Type of FU issued
system.cpu1.iq.FU_type_0::FloatAdd                  0      0.00%     65.01% # Type of FU issued
system.cpu1.iq.FU_type_0::FloatCmp                  0      0.00%     65.01% # Type of FU issued
system.cpu1.iq.FU_type_0::FloatCvt                  0      0.00%     65.01% # Type of FU issued
system.cpu1.iq.FU_type_0::FloatMult                 0      0.00%     65.01% # Type of FU issued
system.cpu1.iq.FU_type_0::FloatMultAcc              0      0.00%     65.01% # Type of FU issued
system.cpu1.iq.FU_type_0::FloatDiv                  0      0.00%     65.01% # Type of FU issued
system.cpu1.iq.FU_type_0::FloatMisc                 0      0.00%     65.01% # Type of FU issued
system.cpu1.iq.FU_type_0::FloatSqrt                 0      0.00%     65.01% # Type of FU issued
system.cpu1.iq.FU_type_0::SimdAdd                   0      0.00%     65.01% # Type of FU issued
system.cpu1.iq.FU_type_0::SimdAddAcc                0      0.00%     65.01% # Type of FU issued
system.cpu1.iq.FU_type_0::SimdAlu                   0      0.00%     65.01% # Type of FU issued
system.cpu1.iq.FU_type_0::SimdCmp                   0      0.00%     65.01% # Type of FU issued
system.cpu1.iq.FU_type_0::SimdCvt                   0      0.00%     65.01% # Type of FU issued
system.cpu1.iq.FU_type_0::SimdMisc                  0      0.00%     65.01% # Type of FU issued
system.cpu1.iq.FU_type_0::SimdMult                  0      0.00%     65.01% # Type of FU issued
system.cpu1.iq.FU_type_0::SimdMultAcc               0      0.00%     65.01% # Type of FU issued
system.cpu1.iq.FU_type_0::SimdShift                 0      0.00%     65.01% # Type of FU issued
system.cpu1.iq.FU_type_0::SimdShiftAcc              0      0.00%     65.01% # Type of FU issued
system.cpu1.iq.FU_type_0::SimdDiv                   0      0.00%     65.01% # Type of FU issued
system.cpu1.iq.FU_type_0::SimdSqrt                  0      0.00%     65.01% # Type of FU issued
system.cpu1.iq.FU_type_0::SimdFloatAdd              0      0.00%     65.01% # Type of FU issued
system.cpu1.iq.FU_type_0::SimdFloatAlu              0      0.00%     65.01% # Type of FU issued
system.cpu1.iq.FU_type_0::SimdFloatCmp              0      0.00%     65.01% # Type of FU issued
system.cpu1.iq.FU_type_0::SimdFloatCvt              0      0.00%     65.01% # Type of FU issued
system.cpu1.iq.FU_type_0::SimdFloatDiv              0      0.00%     65.01% # Type of FU issued
system.cpu1.iq.FU_type_0::SimdFloatMisc             0      0.00%     65.01% # Type of FU issued
system.cpu1.iq.FU_type_0::SimdFloatMult             0      0.00%     65.01% # Type of FU issued
system.cpu1.iq.FU_type_0::SimdFloatMultAcc            0      0.00%     65.01% # Type of FU issued
system.cpu1.iq.FU_type_0::SimdFloatSqrt             0      0.00%     65.01% # Type of FU issued
system.cpu1.iq.FU_type_0::SimdReduceAdd             0      0.00%     65.01% # Type of FU issued
system.cpu1.iq.FU_type_0::SimdReduceAlu             0      0.00%     65.01% # Type of FU issued
system.cpu1.iq.FU_type_0::SimdReduceCmp             0      0.00%     65.01% # Type of FU issued
system.cpu1.iq.FU_type_0::SimdFloatReduceAdd            0      0.00%     65.01% # Type of FU issued
system.cpu1.iq.FU_type_0::SimdFloatReduceCmp            0      0.00%     65.01% # Type of FU issued
system.cpu1.iq.FU_type_0::SimdAes                   0      0.00%     65.01% # Type of FU issued
system.cpu1.iq.FU_type_0::SimdAesMix                0      0.00%     65.01% # Type of FU issued
system.cpu1.iq.FU_type_0::SimdSha1Hash              0      0.00%     65.01% # Type of FU issued
system.cpu1.iq.FU_type_0::SimdSha1Hash2             0      0.00%     65.01% # Type of FU issued
system.cpu1.iq.FU_type_0::SimdSha256Hash            0      0.00%     65.01% # Type of FU issued
system.cpu1.iq.FU_type_0::SimdSha256Hash2            0      0.00%     65.01% # Type of FU issued
system.cpu1.iq.FU_type_0::SimdShaSigma2             0      0.00%     65.01% # Type of FU issued
system.cpu1.iq.FU_type_0::SimdShaSigma3             0      0.00%     65.01% # Type of FU issued
system.cpu1.iq.FU_type_0::SimdPredAlu               0      0.00%     65.01% # Type of FU issued
system.cpu1.iq.FU_type_0::MemRead             1297411     25.50%     90.50% # Type of FU issued
system.cpu1.iq.FU_type_0::MemWrite             483292      9.50%    100.00% # Type of FU issued
system.cpu1.iq.FU_type_0::FloatMemRead             21      0.00%    100.00% # Type of FU issued
system.cpu1.iq.FU_type_0::FloatMemWrite            18      0.00%    100.00% # Type of FU issued
system.cpu1.iq.FU_type_0::IprAccess                 0      0.00%    100.00% # Type of FU issued
system.cpu1.iq.FU_type_0::InstPrefetch              0      0.00%    100.00% # Type of FU issued
system.cpu1.iq.FU_type_0::total               5088694                       # Type of FU issued
system.cpu1.iq.fp_alu_accesses                     46                       # Number of floating point alu accesses
system.cpu1.iq.fp_inst_queue_reads                 85                       # Number of floating instruction queue reads
system.cpu1.iq.fp_inst_queue_wakeup_accesses           30                       # Number of floating instruction queue wakeup accesses
system.cpu1.iq.fp_inst_queue_writes                36                       # Number of floating instruction queue writes
system.cpu1.iq.fu_busy_cnt                      34744                       # FU busy when requested
system.cpu1.iq.fu_busy_rate                  0.006828                       # FU busy rate (busy events/executed inst)
system.cpu1.iq.fu_full::No_OpClass                  0      0.00%      0.00% # attempts to use FU when none available
system.cpu1.iq.fu_full::IntAlu                  11812     34.00%     34.00% # attempts to use FU when none available
system.cpu1.iq.fu_full::IntMult                     0      0.00%     34.00% # attempts to use FU when none available
system.cpu1.iq.fu_full::IntDiv                      0      0.00%     34.00% # attempts to use FU when none available
system.cpu1.iq.fu_full::FloatAdd                    0      0.00%     34.00% # attempts to use FU when none available
system.cpu1.iq.fu_full::FloatCmp                    0      0.00%     34.00% # attempts to use FU when none available
system.cpu1.iq.fu_full::FloatCvt                    0      0.00%     34.00% # attempts to use FU when none available
system.cpu1.iq.fu_full::FloatMult                   0      0.00%     34.00% # attempts to use FU when none available
system.cpu1.iq.fu_full::FloatMultAcc                0      0.00%     34.00% # attempts to use FU when none available
system.cpu1.iq.fu_full::FloatDiv                    0      0.00%     34.00% # attempts to use FU when none available
system.cpu1.iq.fu_full::FloatMisc                   0      0.00%     34.00% # attempts to use FU when none available
system.cpu1.iq.fu_full::FloatSqrt                   0      0.00%     34.00% # attempts to use FU when none available
system.cpu1.iq.fu_full::SimdAdd                     0      0.00%     34.00% # attempts to use FU when none available
system.cpu1.iq.fu_full::SimdAddAcc                  0      0.00%     34.00% # attempts to use FU when none available
system.cpu1.iq.fu_full::SimdAlu                     0      0.00%     34.00% # attempts to use FU when none available
system.cpu1.iq.fu_full::SimdCmp                     0      0.00%     34.00% # attempts to use FU when none available
system.cpu1.iq.fu_full::SimdCvt                     0      0.00%     34.00% # attempts to use FU when none available
system.cpu1.iq.fu_full::SimdMisc                    0      0.00%     34.00% # attempts to use FU when none available
system.cpu1.iq.fu_full::SimdMult                    0      0.00%     34.00% # attempts to use FU when none available
system.cpu1.iq.fu_full::SimdMultAcc                 0      0.00%     34.00% # attempts to use FU when none available
system.cpu1.iq.fu_full::SimdShift                   0      0.00%     34.00% # attempts to use FU when none available
system.cpu1.iq.fu_full::SimdShiftAcc                0      0.00%     34.00% # attempts to use FU when none available
system.cpu1.iq.fu_full::SimdDiv                     0      0.00%     34.00% # attempts to use FU when none available
system.cpu1.iq.fu_full::SimdSqrt                    0      0.00%     34.00% # attempts to use FU when none available
system.cpu1.iq.fu_full::SimdFloatAdd                0      0.00%     34.00% # attempts to use FU when none available
system.cpu1.iq.fu_full::SimdFloatAlu                0      0.00%     34.00% # attempts to use FU when none available
system.cpu1.iq.fu_full::SimdFloatCmp                0      0.00%     34.00% # attempts to use FU when none available
system.cpu1.iq.fu_full::SimdFloatCvt                0      0.00%     34.00% # attempts to use FU when none available
system.cpu1.iq.fu_full::SimdFloatDiv                0      0.00%     34.00% # attempts to use FU when none available
system.cpu1.iq.fu_full::SimdFloatMisc               0      0.00%     34.00% # attempts to use FU when none available
system.cpu1.iq.fu_full::SimdFloatMult               0      0.00%     34.00% # attempts to use FU when none available
system.cpu1.iq.fu_full::SimdFloatMultAcc            0      0.00%     34.00% # attempts to use FU when none available
system.cpu1.iq.fu_full::SimdFloatSqrt               0      0.00%     34.00% # attempts to use FU when none available
system.cpu1.iq.fu_full::SimdReduceAdd               0      0.00%     34.00% # attempts to use FU when none available
system.cpu1.iq.fu_full::SimdReduceAlu               0      0.00%     34.00% # attempts to use FU when none available
system.cpu1.iq.fu_full::SimdReduceCmp               0      0.00%     34.00% # attempts to use FU when none available
system.cpu1.iq.fu_full::SimdFloatReduceAdd            0      0.00%     34.00% # attempts to use FU when none available
system.cpu1.iq.fu_full::SimdFloatReduceCmp            0      0.00%     34.00% # attempts to use FU when none available
system.cpu1.iq.fu_full::SimdAes                     0      0.00%     34.00% # attempts to use FU when none available
system.cpu1.iq.fu_full::SimdAesMix                  0      0.00%     34.00% # attempts to use FU when none available
system.cpu1.iq.fu_full::SimdSha1Hash                0      0.00%     34.00% # attempts to use FU when none available
system.cpu1.iq.fu_full::SimdSha1Hash2               0      0.00%     34.00% # attempts to use FU when none available
system.cpu1.iq.fu_full::SimdSha256Hash              0      0.00%     34.00% # attempts to use FU when none available
system.cpu1.iq.fu_full::SimdSha256Hash2             0      0.00%     34.00% # attempts to use FU when none available
system.cpu1.iq.fu_full::SimdShaSigma2               0      0.00%     34.00% # attempts to use FU when none available
system.cpu1.iq.fu_full::SimdShaSigma3               0      0.00%     34.00% # attempts to use FU when none available
system.cpu1.iq.fu_full::SimdPredAlu                 0      0.00%     34.00% # attempts to use FU when none available
[...]
system.cpu1.dcache.WriteReq_mshr_miss_latency::.cpu1.data   1587720824                       # number of WriteReq MSHR miss cycles
system.cpu1.dcache.WriteReq_mshr_miss_latency::total   1587720824                       # number of WriteReq MSHR miss cycles
system.cpu1.dcache.WriteReq_mshr_miss_rate::.cpu1.data     0.065652                       # mshr miss rate for WriteReq accesses
system.cpu1.dcache.WriteReq_mshr_miss_rate::total     0.065652                       # mshr miss rate for WriteReq accesses
system.cpu1.dcache.WriteReq_avg_mshr_miss_latency::.cpu1.data 70299.792960                       # average WriteReq mshr miss latency
system.cpu1.dcache.WriteReq_avg_mshr_miss_latency::total 70299.792960                       # average WriteReq mshr miss latency
system.cpu1.dcache.LoadLockedReq_hits::.cpu1.data         3088                       # number of LoadLockedReq hits
system.cpu1.dcache.LoadLockedReq_hits::total         3088                       # number of LoadLockedReq hits
system.cpu1.dcache.LoadLockedReq_misses::.cpu1.data         1002                       # number of LoadLockedReq misses
system.cpu1.dcache.LoadLockedReq_misses::total         1002                       # number of LoadLockedReq misses
system.cpu1.dcache.LoadLockedReq_miss_latency::.cpu1.data     30202000                       # number of LoadLockedReq miss cycles
system.cpu1.dcache.LoadLockedReq_miss_latency::total     30202000                       # number of LoadLockedReq miss cycles
system.cpu1.dcache.LoadLockedReq_accesses::.cpu1.data         4090                       # number of LoadLockedReq accesses(hits+misses)
system.cpu1.dcache.LoadLockedReq_accesses::total         4090                       # number of LoadLockedReq accesses(hits+misses)
system.cpu1.dcache.LoadLockedReq_miss_rate::.cpu1.data     0.244988                       # miss rate for LoadLockedReq accesses
system.cpu1.dcache.LoadLockedReq_miss_rate::total     0.244988                       # miss rate for LoadLockedReq accesses
system.cpu1.dcache.LoadLockedReq_avg_miss_latency::.cpu1.data 30141.716567                       # average LoadLockedReq miss latency
system.cpu1.dcache.LoadLockedReq_avg_miss_latency::total 30141.716567                       # average LoadLockedReq miss latency
system.cpu1.dcache.LoadLockedReq_mshr_hits::.cpu1.data          484                       # number of LoadLockedReq MSHR hits
system.cpu1.dcache.LoadLockedReq_mshr_hits::total          484                       # number of LoadLockedReq MSHR hits
system.cpu1.dcache.LoadLockedReq_mshr_misses::.cpu1.data          518                       # number of LoadLockedReq MSHR misses
system.cpu1.dcache.LoadLockedReq_mshr_misses::total          518                       # number of LoadLockedReq MSHR misses
system.cpu1.dcache.LoadLockedReq_mshr_miss_latency::.cpu1.data      2940500                       # number of LoadLockedReq MSHR miss cycles
system.cpu1.dcache.LoadLockedReq_mshr_miss_latency::total      2940500                       # number of LoadLockedReq MSHR miss cycles
system.cpu1.dcache.LoadLockedReq_mshr_miss_rate::.cpu1.data     0.126650                       # mshr miss rate for LoadLockedReq accesses
system.cpu1.dcache.LoadLockedReq_mshr_miss_rate::total     0.126650                       # mshr miss rate for LoadLockedReq accesses
system.cpu1.dcache.LoadLockedReq_avg_mshr_miss_latency::.cpu1.data  5676.640927                       # average LoadLockedReq mshr miss latency
system.cpu1.dcache.LoadLockedReq_avg_mshr_miss_latency::total  5676.640927                       # average LoadLockedReq mshr miss latency
system.cpu1.dcache.StoreCondReq_hits::.cpu1.data         1438                       # number of StoreCondReq hits
system.cpu1.dcache.StoreCondReq_hits::total         1438                       # number of StoreCondReq hits
system.cpu1.dcache.StoreCondReq_misses::.cpu1.data         1424                       # number of StoreCondReq misses
system.cpu1.dcache.StoreCondReq_misses::total         1424                       # number of StoreCondReq misses
system.cpu1.dcache.StoreCondReq_miss_latency::.cpu1.data      9993500                       # number of StoreCondReq miss cycles
system.cpu1.dcache.StoreCondReq_miss_latency::total      9993500                       # number of StoreCondReq miss cycles
system.cpu1.dcache.StoreCondReq_accesses::.cpu1.data         2862                       # number of StoreCondReq accesses(hits+misses)
system.cpu1.dcache.StoreCondReq_accesses::total         2862                       # number of StoreCondReq accesses(hits+misses)
system.cpu1.dcache.StoreCondReq_miss_rate::.cpu1.data     0.497554                       # miss rate for StoreCondReq accesses
system.cpu1.dcache.StoreCondReq_miss_rate::total     0.497554                       # miss rate for StoreCondReq accesses
system.cpu1.dcache.StoreCondReq_avg_miss_latency::.cpu1.data  7017.907303                       # average StoreCondReq miss latency
system.cpu1.dcache.StoreCondReq_avg_miss_latency::total  7017.907303                       # average StoreCondReq miss latency
system.cpu1.dcache.StoreCondReq_mshr_misses::.cpu1.data         1375                       # number of StoreCondReq MSHR misses
system.cpu1.dcache.StoreCondReq_mshr_misses::total         1375                       # number of StoreCondReq MSHR misses
system.cpu1.dcache.StoreCondReq_mshr_miss_latency::.cpu1.data      8848500                       # number of StoreCondReq MSHR miss cycles
system.cpu1.dcache.StoreCondReq_mshr_miss_latency::total      8848500                       # number of StoreCondReq MSHR miss cycles
system.cpu1.dcache.StoreCondReq_mshr_miss_rate::.cpu1.data     0.480433                       # mshr miss rate for StoreCondReq accesses
system.cpu1.dcache.StoreCondReq_mshr_miss_rate::total     0.480433                       # mshr miss rate for StoreCondReq accesses
system.cpu1.dcache.StoreCondReq_avg_mshr_miss_latency::.cpu1.data  6435.272727                       # average StoreCondReq mshr miss latency
system.cpu1.dcache.StoreCondReq_avg_mshr_miss_latency::total  6435.272727                       # average StoreCondReq mshr miss latency
system.cpu1.dcache.StoreCondFailReq_miss_latency::.cpu1.data      2635500                       # number of StoreCondFailReq miss cycles
system.cpu1.dcache.StoreCondFailReq_miss_latency::total      2635500                       # number of StoreCondFailReq miss cycles
system.cpu1.dcache.StoreCondFailReq_avg_miss_latency::.cpu1.data          inf                       # average StoreCondFailReq miss latency
system.cpu1.dcache.StoreCondFailReq_avg_miss_latency::total          inf                       # average StoreCondFailReq miss latency
system.cpu1.dcache.StoreCondFailReq_mshr_miss_latency::.cpu1.data      2405500                       # number of StoreCondFailReq MSHR miss cycles
system.cpu1.dcache.StoreCondFailReq_mshr_miss_latency::total      2405500                       # number of StoreCondFailReq MSHR miss cycles
system.cpu1.dcache.StoreCondFailReq_avg_mshr_miss_latency::.cpu1.data          inf                       # average StoreCondFailReq mshr miss latency
system.cpu1.dcache.StoreCondFailReq_avg_mshr_miss_latency::total          inf                       # average StoreCondFailReq mshr miss latency
system.cpu1.dcache.SwapReq_hits::.cpu1.data         1059                       # number of SwapReq hits
system.cpu1.dcache.SwapReq_hits::total           1059                       # number of SwapReq hits
system.cpu1.dcache.SwapReq_misses::.cpu1.data         4355                       # number of SwapReq misses
system.cpu1.dcache.SwapReq_misses::total         4355                       # number of SwapReq misses
system.cpu1.dcache.SwapReq_miss_latency::.cpu1.data    126346500                       # number of SwapReq miss cycles
system.cpu1.dcache.SwapReq_miss_latency::total    126346500                       # number of SwapReq miss cycles
system.cpu1.dcache.SwapReq_accesses::.cpu1.data         5414                       # number of SwapReq accesses(hits+misses)
system.cpu1.dcache.SwapReq_accesses::total         5414                       # number of SwapReq accesses(hits+misses)
system.cpu1.dcache.SwapReq_miss_rate::.cpu1.data     0.804396                       # miss rate for SwapReq accesses
system.cpu1.dcache.SwapReq_miss_rate::total     0.804396                       # miss rate for SwapReq accesses
system.cpu1.dcache.SwapReq_avg_miss_latency::.cpu1.data 29011.825488                       # average SwapReq miss latency
system.cpu1.dcache.SwapReq_avg_miss_latency::total 29011.825488                       # average SwapReq miss latency
system.cpu1.dcache.SwapReq_mshr_hits::.cpu1.data            1                       # number of SwapReq MSHR hits
system.cpu1.dcache.SwapReq_mshr_hits::total            1                       # number of SwapReq MSHR hits
system.cpu1.dcache.SwapReq_mshr_misses::.cpu1.data         4354                       # number of SwapReq MSHR misses
system.cpu1.dcache.SwapReq_mshr_misses::total         4354                       # number of SwapReq MSHR misses
system.cpu1.dcache.SwapReq_mshr_miss_latency::.cpu1.data    121991500                       # number of SwapReq MSHR miss cycles
system.cpu1.dcache.SwapReq_mshr_miss_latency::total    121991500                       # number of SwapReq MSHR miss cycles
system.cpu1.dcache.SwapReq_mshr_miss_rate::.cpu1.data     0.804211                       # mshr miss rate for SwapReq accesses
system.cpu1.dcache.SwapReq_mshr_miss_rate::total     0.804211                       # mshr miss rate for SwapReq accesses
system.cpu1.dcache.SwapReq_avg_mshr_miss_latency::.cpu1.data 28018.259072                       # average SwapReq mshr miss latency
system.cpu1.dcache.SwapReq_avg_mshr_miss_latency::total 28018.259072                       # average SwapReq mshr miss latency
system.cpu1.dcache.tags.pwrStateResidencyTicks::UNDEFINED  75564084000                       # Cumulative time (in ticks) in various power states
system.cpu1.dcache.tags.tagsinuse           31.598704                       # Cycle average of tags in use
system.cpu1.dcache.tags.total_refs            5843568                       # Total number of references to valid blocks.
system.cpu1.dcache.tags.sampled_refs          2954989                       # Sample count of references to valid blocks.
system.cpu1.dcache.tags.avg_refs             1.977526                       # Average number of references to valid blocks.
system.cpu1.dcache.tags.warmup_cycle                0                       # Cycle when the warmup percentage was hit.
system.cpu1.dcache.tags.occ_blocks::.cpu1.data    31.598704                       # Average occupied blocks per requestor
system.cpu1.dcache.tags.occ_percent::.cpu1.data     0.987459                       # Average percentage of cache occupancy
system.cpu1.dcache.tags.occ_percent::total     0.987459                       # Average percentage of cache occupancy
system.cpu1.dcache.tags.occ_task_id_blocks::1024           26                       # Occupied blocks per task id
system.cpu1.dcache.tags.age_task_id_blocks_1024::1           26                       # Occupied blocks per task id
system.cpu1.dcache.tags.occ_task_id_percent::1024     0.812500                       # Percentage of cache occupancy per task id
system.cpu1.dcache.tags.tag_accesses         20205598                       # Number of tag accesses
system.cpu1.dcache.tags.data_accesses        20205598                       # Number of data accesses
system.cpu_clk_domain.clock                       500                       # Clock period in ticks
system.tol2bus.pwrStateResidencyTicks::UNDEFINED  75564084000                       # Cumulative time (in ticks) in various power states
system.tol2bus.trans_dist::ReadResp          11841550                       # Transaction distribution
system.tol2bus.trans_dist::ReadRespWithInvalidate           33                       # Transaction distribution
system.tol2bus.trans_dist::WritebackDirty       448797                       # Transaction distribution
system.tol2bus.trans_dist::WritebackClean       121949                       # Transaction distribution
system.tol2bus.trans_dist::CleanEvict        20633421                       # Transaction distribution
system.tol2bus.trans_dist::UpgradeReq            8673                       # Transaction distribution
system.tol2bus.trans_dist::SCUpgradeReq          4647                       # Transaction distribution
system.tol2bus.trans_dist::UpgradeResp          13320                       # Transaction distribution
system.tol2bus.trans_dist::SCUpgradeFailReq          646                       # Transaction distribution
system.tol2bus.trans_dist::UpgradeFailResp          646                       # Transaction distribution
system.tol2bus.trans_dist::ReadExReq           114583                       # Transaction distribution
system.tol2bus.trans_dist::ReadExResp          114583                       # Transaction distribution
system.tol2bus.trans_dist::ReadCleanReq        121950                       # Transaction distribution
system.tol2bus.trans_dist::ReadSharedReq     11719635                       # Transaction distribution
system.tol2bus.pkt_count_system.cpu0.icache.mem_side::system.l2.cpu_side       219601                       # Packet count per connected master and slave (bytes)
system.tol2bus.pkt_count_system.cpu0.dcache.mem_side::system.l2.cpu_side      8910399                       # Packet count per connected master and slave (bytes)
system.tol2bus.pkt_count_system.cpu1.icache.mem_side::system.l2.cpu_side        48039                       # Packet count per connected master and slave (bytes)
system.tol2bus.pkt_count_system.cpu1.dcache.mem_side::system.l2.cpu_side      8853807                       # Packet count per connected master and slave (bytes)
system.tol2bus.pkt_count_system.cpu2.icache.mem_side::system.l2.cpu_side        50613                       # Packet count per connected master and slave (bytes)
system.tol2bus.pkt_count_system.cpu2.dcache.mem_side::system.l2.cpu_side      8862861                       # Packet count per connected master and slave (bytes)
system.tol2bus.pkt_count_system.cpu3.icache.mem_side::system.l2.cpu_side        47595                       # Packet count per connected master and slave (bytes)
system.tol2bus.pkt_count_system.cpu3.dcache.mem_side::system.l2.cpu_side      8838325                       # Packet count per connected master and slave (bytes)
system.tol2bus.pkt_count::total              35831240                       # Packet count per connected master and slave (bytes)
system.tol2bus.pkt_size_system.cpu0.icache.mem_side::system.l2.cpu_side      9369600                       # Cumulative packet size per connected master and slave (bytes)
system.tol2bus.pkt_size_system.cpu0.dcache.mem_side::system.l2.cpu_side    195063936                       # Cumulative packet size per connected master and slave (bytes)
system.tol2bus.pkt_size_system.cpu1.icache.mem_side::system.l2.cpu_side      2049664                       # Cumulative packet size per connected master and slave (bytes)
system.tol2bus.pkt_size_system.cpu1.dcache.mem_side::system.l2.cpu_side    192491712                       # Cumulative packet size per connected master and slave (bytes)
system.tol2bus.pkt_size_system.cpu2.icache.mem_side::system.l2.cpu_side      2159488                       # Cumulative packet size per connected master and slave (bytes)
system.tol2bus.pkt_size_system.cpu2.dcache.mem_side::system.l2.cpu_side    192681984                       # Cumulative packet size per connected master and slave (bytes)
system.tol2bus.pkt_size_system.cpu3.icache.mem_side::system.l2.cpu_side      2030720                       # Cumulative packet size per connected master and slave (bytes)
system.tol2bus.pkt_size_system.cpu3.dcache.mem_side::system.l2.cpu_side    192113472                       # Cumulative packet size per connected master and slave (bytes)
system.tol2bus.pkt_size::total              787960576                       # Cumulative packet size per connected master and slave (bytes)
system.tol2bus.snoops                         9313193                       # Total snoops (count)
system.tol2bus.snoopTraffic                  13803136                       # Total snoop traffic (bytes)
system.tol2bus.snoop_fanout::samples         21245169                       # Request fanout histogram
system.tol2bus.snoop_fanout::mean            0.706441                       # Request fanout histogram
system.tol2bus.snoop_fanout::stdev           0.726189                       # Request fanout histogram
system.tol2bus.snoop_fanout::underflows             0      0.00%      0.00% # Request fanout histogram
system.tol2bus.snoop_fanout::0                9204477     43.33%     43.33% # Request fanout histogram
system.tol2bus.snoop_fanout::1                9475737     44.60%     87.93% # Request fanout histogram
system.tol2bus.snoop_fanout::2                2190442     10.31%     98.24% # Request fanout histogram
system.tol2bus.snoop_fanout::3                 346208      1.63%     99.87% # Request fanout histogram
system.tol2bus.snoop_fanout::4                  28305      0.13%    100.00% # Request fanout histogram
system.tol2bus.snoop_fanout::5                      0      0.00%    100.00% # Request fanout histogram
system.tol2bus.snoop_fanout::6                      0      0.00%    100.00% # Request fanout histogram
system.tol2bus.snoop_fanout::7                      0      0.00%    100.00% # Request fanout histogram
system.tol2bus.snoop_fanout::8                      0      0.00%    100.00% # Request fanout histogram
system.tol2bus.snoop_fanout::overflows              0      0.00%    100.00% # Request fanout histogram
system.tol2bus.snoop_fanout::min_value              0                       # Request fanout histogram
system.tol2bus.snoop_fanout::max_value              4                       # Request fanout histogram
system.tol2bus.snoop_fanout::total           21245169                       # Request fanout histogram
system.tol2bus.reqLayer0.occupancy        12332630301                       # Layer occupancy (ticks)
system.tol2bus.reqLayer0.utilization             16.3                       # Layer utilization (%)
system.tol2bus.respLayer5.occupancy        4521951237                       # Layer occupancy (ticks)
system.tol2bus.respLayer5.utilization             6.0                       # Layer utilization (%)
system.tol2bus.respLayer4.occupancy          26481876                       # Layer occupancy (ticks)
system.tol2bus.respLayer4.utilization             0.0                       # Layer utilization (%)
system.tol2bus.respLayer7.occupancy        4510312479                       # Layer occupancy (ticks)
system.tol2bus.respLayer7.utilization             6.0                       # Layer utilization (%)
system.tol2bus.respLayer6.occupancy          25022842                       # Layer occupancy (ticks)
system.tol2bus.respLayer6.utilization             0.0                       # Layer utilization (%)
system.tol2bus.respLayer1.occupancy        4541051705                       # Layer occupancy (ticks)
system.tol2bus.respLayer1.utilization             6.0                       # Layer utilization (%)
system.tol2bus.respLayer0.occupancy         109974091                       # Layer occupancy (ticks)
system.tol2bus.respLayer0.utilization             0.1                       # Layer utilization (%)
system.tol2bus.respLayer3.occupancy        4517773442                       # Layer occupancy (ticks)
system.tol2bus.respLayer3.utilization             6.0                       # Layer utilization (%)
system.tol2bus.respLayer2.occupancy          25367942                       # Layer occupancy (ticks)
system.tol2bus.respLayer2.utilization             0.0                       # Layer utilization (%)

---------- End Simulation Statistics   ----------
