
---------- Begin Simulation Statistics ----------
final_tick                               540420244000                       # Number of ticks from beginning of simulation (restored from checkpoints and never reset)
host_inst_rate                                  87037                       # Simulator instruction rate (inst/s)
host_mem_usage                                 739760                       # Number of bytes of host memory used
host_op_rate                                    87326                       # Simulator op (including micro ops) rate (op/s)
host_seconds                                  7047.50                       # Real time elapsed on the host
host_tick_rate                               76682580                       # Simulator tick rate (ticks/s)
sim_freq                                 1000000000000                       # Frequency of simulated ticks
sim_insts                                   613394019                       # Number of instructions simulated
sim_ops                                     615432823                       # Number of ops (including micro ops) simulated
sim_seconds                                  0.540420                       # Number of seconds simulated
sim_ticks                                540420244000                       # Number of ticks simulated
system.cpu0.branchPred.BTBCorrect                   0                       # Number of correct BTB predictions (this stat may not work properly.
system.cpu0.branchPred.BTBHitPct            86.619828                       # BTB Hit Percentage
system.cpu0.branchPred.BTBHits               75183128                       # Number of BTB hits
system.cpu0.branchPred.BTBLookups            86796672                       # Number of BTB lookups
system.cpu0.branchPred.RASInCorrect                 0                       # Number of incorrect RAS predictions.
system.cpu0.branchPred.condIncorrect          6697938                       # Number of conditional branches incorrect
system.cpu0.branchPred.condPredicted        116428704                       # Number of conditional branches predicted
system.cpu0.branchPred.indirectHits          10326409                       # Number of indirect target hits.
system.cpu0.branchPred.indirectLookups       10466049                       # Number of indirect predictor lookups.
system.cpu0.branchPred.indirectMisses          139640                       # Number of indirect misses.
system.cpu0.branchPred.lookups              149773305                       # Number of BP lookups
system.cpu0.branchPred.usedRAS                      0                       # Number of times the RAS was used to get a target.
system.cpu0.branchPredindirectMispredicted      1053459                       # Number of mispredicted indirect branches.
system.cpu0.commit.amos                        509388                       # Number of atomic instructions committed
system.cpu0.commit.branchMispredicts          4696887                       # The number of times a branch was mispredicted
system.cpu0.commit.branches                 138966620                       # Number of branches committed
system.cpu0.commit.bw_lim_events             18929000                       # number cycles where commit BW limit reached
system.cpu0.commit.commitNonSpecStalls        1532409                       # The number of times commit has been forced to stall to communicate backwards
system.cpu0.commit.commitSquashedInsts       37963649                       # The number of squashed insts skipped by commit
system.cpu0.commit.committedInsts           561779597                       # Number of instructions committed
system.cpu0.commit.committedOps             562290291                       # Number of ops (including micro ops) committed
system.cpu0.commit.committed_per_cycle::samples    975750423                       # Number of insts commited each cycle
system.cpu0.commit.committed_per_cycle::mean     0.576264                       # Number of insts commited each cycle
system.cpu0.commit.committed_per_cycle::stdev     1.373572                       # Number of insts commited each cycle
system.cpu0.commit.committed_per_cycle::underflows            0      0.00%      0.00% # Number of insts commited each cycle
system.cpu0.commit.committed_per_cycle::0    706206148     72.38%     72.38% # Number of insts commited each cycle
system.cpu0.commit.committed_per_cycle::1    164092693     16.82%     89.19% # Number of insts commited each cycle
system.cpu0.commit.committed_per_cycle::2     36789258      3.77%     92.96% # Number of insts commited each cycle
system.cpu0.commit.committed_per_cycle::3     34572197      3.54%     96.51% # Number of insts commited each cycle
system.cpu0.commit.committed_per_cycle::4      9684038      0.99%     97.50% # Number of insts commited each cycle
system.cpu0.commit.committed_per_cycle::5      3334114      0.34%     97.84% # Number of insts commited each cycle
system.cpu0.commit.committed_per_cycle::6       937056      0.10%     97.94% # Number of insts commited each cycle
system.cpu0.commit.committed_per_cycle::7      1205919      0.12%     98.06% # Number of insts commited each cycle
system.cpu0.commit.committed_per_cycle::8     18929000      1.94%    100.00% # Number of insts commited each cycle
system.cpu0.commit.committed_per_cycle::overflows            0      0.00%    100.00% # Number of insts commited each cycle
system.cpu0.commit.committed_per_cycle::min_value            0                       # Number of insts commited each cycle
system.cpu0.commit.committed_per_cycle::max_value            8                       # Number of insts commited each cycle
system.cpu0.commit.committed_per_cycle::total    975750423                       # Number of insts commited each cycle
system.cpu0.commit.fp_insts                        46                       # Number of committed floating point instructions.
system.cpu0.commit.function_calls            11672258                       # Number of function calls committed.
system.cpu0.commit.int_insts                543426631                       # Number of committed integer instructions.
system.cpu0.commit.loads                    174757020                       # Number of loads committed
system.cpu0.commit.membars                    1019983                       # Number of memory barriers committed
system.cpu0.commit.op_class_0::No_OpClass      1019989      0.18%      0.18% # Class of committed instruction
system.cpu0.commit.op_class_0::IntAlu       311035385     55.32%     55.50% # Class of committed instruction
system.cpu0.commit.op_class_0::IntMult        4135910      0.74%     56.23% # Class of committed instruction
system.cpu0.commit.op_class_0::IntDiv         1017773      0.18%     56.41% # Class of committed instruction
system.cpu0.commit.op_class_0::FloatAdd             0      0.00%     56.41% # Class of committed instruction
system.cpu0.commit.op_class_0::FloatCmp             4      0.00%     56.41% # Class of committed instruction
system.cpu0.commit.op_class_0::FloatCvt            12      0.00%     56.41% # Class of committed instruction
system.cpu0.commit.op_class_0::FloatMult            0      0.00%     56.41% # Class of committed instruction
system.cpu0.commit.op_class_0::FloatMultAcc            0      0.00%     56.41% # Class of committed instruction
system.cpu0.commit.op_class_0::FloatDiv             2      0.00%     56.41% # Class of committed instruction
system.cpu0.commit.op_class_0::FloatMisc            4      0.00%     56.41% # Class of committed instruction
system.cpu0.commit.op_class_0::FloatSqrt            0      0.00%     56.41% # Class of committed instruction
system.cpu0.commit.op_class_0::SimdAdd              0      0.00%     56.41% # Class of committed instruction
system.cpu0.commit.op_class_0::SimdAddAcc            0      0.00%     56.41% # Class of committed instruction
system.cpu0.commit.op_class_0::SimdAlu              0      0.00%     56.41% # Class of committed instruction
system.cpu0.commit.op_class_0::SimdCmp              0      0.00%     56.41% # Class of committed instruction
system.cpu0.commit.op_class_0::SimdCvt              0      0.00%     56.41% # Class of committed instruction
system.cpu0.commit.op_class_0::SimdMisc             0      0.00%     56.41% # Class of committed instruction
system.cpu0.commit.op_class_0::SimdMult             0      0.00%     56.41% # Class of committed instruction
system.cpu0.commit.op_class_0::SimdMultAcc            0      0.00%     56.41% # Class of committed instruction
system.cpu0.commit.op_class_0::SimdShift            0      0.00%     56.41% # Class of committed instruction
system.cpu0.commit.op_class_0::SimdShiftAcc            0      0.00%     56.41% # Class of committed instruction
system.cpu0.commit.op_class_0::SimdDiv              0      0.00%     56.41% # Class of committed instruction
system.cpu0.commit.op_class_0::SimdSqrt             0      0.00%     56.41% # Class of committed instruction
system.cpu0.commit.op_class_0::SimdFloatAdd            0      0.00%     56.41% # Class of committed instruction
system.cpu0.commit.op_class_0::SimdFloatAlu            0      0.00%     56.41% # Class of committed instruction
system.cpu0.commit.op_class_0::SimdFloatCmp            0      0.00%     56.41% # Class of committed instruction
system.cpu0.commit.op_class_0::SimdFloatCvt            0      0.00%     56.41% # Class of committed instruction
system.cpu0.commit.op_class_0::SimdFloatDiv            0      0.00%     56.41% # Class of committed instruction
system.cpu0.commit.op_class_0::SimdFloatMisc            0      0.00%     56.41% # Class of committed instruction
system.cpu0.commit.op_class_0::SimdFloatMult            0      0.00%     56.41% # Class of committed instruction
system.cpu0.commit.op_class_0::SimdFloatMultAcc            0      0.00%     56.41% # Class of committed instruction
system.cpu0.commit.op_class_0::SimdFloatSqrt            0      0.00%     56.41% # Class of committed instruction
system.cpu0.commit.op_class_0::SimdReduceAdd            0      0.00%     56.41% # Class of committed instruction
system.cpu0.commit.op_class_0::SimdReduceAlu            0      0.00%     56.41% # Class of committed instruction
system.cpu0.commit.op_class_0::SimdReduceCmp            0      0.00%     56.41% # Class of committed instruction
system.cpu0.commit.op_class_0::SimdFloatReduceAdd            0      0.00%     56.41% # Class of committed instruction
system.cpu0.commit.op_class_0::SimdFloatReduceCmp            0      0.00%     56.41% # Class of committed instruction
system.cpu0.commit.op_class_0::SimdAes              0      0.00%     56.41% # Class of committed instruction
system.cpu0.commit.op_class_0::SimdAesMix            0      0.00%     56.41% # Class of committed instruction
system.cpu0.commit.op_class_0::SimdSha1Hash            0      0.00%     56.41% # Class of committed instruction
system.cpu0.commit.op_class_0::SimdSha1Hash2            0      0.00%     56.41% # Class of committed instruction
system.cpu0.commit.op_class_0::SimdSha256Hash            0      0.00%     56.41% # Class of committed instruction
system.cpu0.commit.op_class_0::SimdSha256Hash2            0      0.00%     56.41% # Class of committed instruction
system.cpu0.commit.op_class_0::SimdShaSigma2            0      0.00%     56.41% # Class of committed instruction
system.cpu0.commit.op_class_0::SimdShaSigma3            0      0.00%     56.41% # Class of committed instruction
system.cpu0.commit.op_class_0::SimdPredAlu            0      0.00%     56.41% # Class of committed instruction
system.cpu0.commit.op_class_0::MemRead      175266400     31.17%     87.58% # Class of committed instruction
system.cpu0.commit.op_class_0::MemWrite      69814788     12.42%    100.00% # Class of committed instruction
system.cpu0.commit.op_class_0::FloatMemRead            8      0.00%    100.00% # Class of committed instruction
system.cpu0.commit.op_class_0::FloatMemWrite           16      0.00%    100.00% # Class of committed instruction
system.cpu0.commit.op_class_0::IprAccess            0      0.00%    100.00% # Class of committed instruction
system.cpu0.commit.op_class_0::InstPrefetch            0      0.00%    100.00% # Class of committed instruction
system.cpu0.commit.op_class_0::total        562290291                       # Class of committed instruction
system.cpu0.commit.refs                     245081212                       # Number of memory references committed
system.cpu0.commit.swp_count                        0                       # Number of s/w prefetches committed
system.cpu0.commit.vec_insts                        0                       # Number of committed Vector instructions.
system.cpu0.committedInsts                  561779597                       # Number of Instructions Simulated
system.cpu0.committedOps                    562290291                       # Number of Ops (including micro ops) Simulated
system.cpu0.cpi                              1.904522                       # CPI: Cycles Per Instruction
system.cpu0.cpi_total                        1.904522                       # CPI: Total CPI of All Threads
system.cpu0.decode.BlockedCycles            111375856                       # Number of cycles decode is blocked
system.cpu0.decode.BranchMispred              2007464                       # Number of times decode detected a branch misprediction
system.cpu0.decode.BranchResolved            74516508                       # Number of times decode resolved a branch
system.cpu0.decode.DecodedInsts             612135692                       # Number of instructions handled by decode
system.cpu0.decode.IdleCycles               434358297                       # Number of cycles decode is idle
system.cpu0.decode.RunCycles                431071943                       # Number of cycles decode is running
system.cpu0.decode.SquashCycles               4704218                       # Number of cycles decode is squashing
system.cpu0.decode.SquashedInsts              3999337                       # Number of squashed instructions handled by decode
system.cpu0.decode.UnblockCycles              1840226                       # Number of cycles decode is unblocking
system.cpu0.dtb.accesses                            0                       # DTB accesses
system.cpu0.dtb.hits                                0                       # DTB hits
system.cpu0.dtb.misses                              0                       # DTB misses
system.cpu0.dtb.read_accesses                       0                       # DTB read accesses
system.cpu0.dtb.read_hits                           0                       # DTB read hits
system.cpu0.dtb.read_misses                         0                       # DTB read misses
system.cpu0.dtb.write_accesses                      0                       # DTB write accesses
system.cpu0.dtb.write_hits                          0                       # DTB write hits
system.cpu0.dtb.write_misses                        0                       # DTB write misses
system.cpu0.fetch.Branches                  149773305                       # Number of branches that fetch encountered
system.cpu0.fetch.CacheLines                106484589                       # Number of cache lines fetched
system.cpu0.fetch.Cycles                    547559557                       # Number of cycles fetch has run and was not squashing or blocked
system.cpu0.fetch.IcacheSquashes              2981220                       # Number of outstanding Icache misses that were squashed
system.cpu0.fetch.IcacheWaitRetryStallCycles          180                       # Number of stall cycles due to full MSHR
system.cpu0.fetch.Insts                     621870684                       # Number of instructions fetch has processed
system.cpu0.fetch.MiscStallCycles                  31                       # Number of cycles fetch has spent waiting on interrupts, or bad addresses, or out of MSHRs
system.cpu0.fetch.PendingTrapStallCycles            6                       # Number of stall cycles due to pending traps
system.cpu0.fetch.SquashCycles               13410538                       # Number of cycles fetch has spent squashing
system.cpu0.fetch.branchRate                 0.139985                       # Number of branch fetches per cycle
system.cpu0.fetch.icacheStallCycles         429085497                       # Number of cycles fetch is stalled on an Icache miss
system.cpu0.fetch.predictedBranches          85509537                       # Number of branches that fetch has predicted taken
system.cpu0.fetch.rate                       0.581230                       # Number of inst fetches per cycle
system.cpu0.fetch.rateDist::samples         983350540                       # Number of instructions fetched each cycle (Total)
system.cpu0.fetch.rateDist::mean             0.633214                       # Number of instructions fetched each cycle (Total)
system.cpu0.fetch.rateDist::stdev            0.895808                       # Number of instructions fetched each cycle (Total)
system.cpu0.fetch.rateDist::underflows              0      0.00%      0.00% # Number of instructions fetched each cycle (Total)
system.cpu0.fetch.rateDist::0               538332705     54.74%     54.74% # Number of instructions fetched each cycle (Total)
system.cpu0.fetch.rateDist::1               331446924     33.71%     88.45% # Number of instructions fetched each cycle (Total)
system.cpu0.fetch.rateDist::2                68524555      6.97%     95.42% # Number of instructions fetched each cycle (Total)
system.cpu0.fetch.rateDist::3                36242024      3.69%     99.10% # Number of instructions fetched each cycle (Total)
system.cpu0.fetch.rateDist::4                 3845116      0.39%     99.50% # Number of instructions fetched each cycle (Total)
system.cpu0.fetch.rateDist::5                 2751052      0.28%     99.78% # Number of instructions fetched each cycle (Total)
system.cpu0.fetch.rateDist::6                  165121      0.02%     99.79% # Number of instructions fetched each cycle (Total)
system.cpu0.fetch.rateDist::7                 1021650      0.10%     99.90% # Number of instructions fetched each cycle (Total)
system.cpu0.fetch.rateDist::8                 1021393      0.10%    100.00% # Number of instructions fetched each cycle (Total)
system.cpu0.fetch.rateDist::overflows               0      0.00%    100.00% # Number of instructions fetched each cycle (Total)
system.cpu0.fetch.rateDist::min_value               0                       # Number of instructions fetched each cycle (Total)
system.cpu0.fetch.rateDist::max_value               8                       # Number of instructions fetched each cycle (Total)
system.cpu0.fetch.rateDist::total           983350540                       # Number of instructions fetched each cycle (Total)
system.cpu0.fp_regfile_reads                       40                       # number of floating regfile reads
system.cpu0.fp_regfile_writes                      26                       # number of floating regfile writes
system.cpu0.idleCycles                       86571290                       # Total number of cycles that the CPU has spent unscheduled due to idling
system.cpu0.iew.branchMispredicts             4752339                       # Number of branch mispredicts detected at execute
system.cpu0.iew.exec_branches               142750858                       # Number of branches executed
system.cpu0.iew.exec_nop                            0                       # number of nop insts executed
system.cpu0.iew.exec_rate                    0.551854                       # Inst execution rate
system.cpu0.iew.exec_refs                   261474566                       # number of memory reference insts executed
system.cpu0.iew.exec_stores                  73351654                       # Number of stores executed
system.cpu0.iew.exec_swp                            0                       # number of swp insts executed
system.cpu0.iew.iewBlockCycles               86486888                       # Number of cycles IEW is blocking
system.cpu0.iew.iewDispLoadInsts            189421473                       # Number of dispatched load instructions
system.cpu0.iew.iewDispNonSpecInsts            652728                       # Number of dispatched non-speculative instructions
system.cpu0.iew.iewDispSquashedInsts          2320040                       # Number of squashed instructions skipped by dispatch
system.cpu0.iew.iewDispStoreInsts            75270163                       # Number of dispatched store instructions
system.cpu0.iew.iewDispatchedInsts          600236790                       # Number of instructions dispatched to IQ
system.cpu0.iew.iewExecLoadInsts            188122912                       # Number of load instructions executed
system.cpu0.iew.iewExecSquashedInsts          4796652                       # Number of squashed instructions skipped in execute
system.cpu0.iew.iewExecutedInsts            590440575                       # Number of executed instructions
system.cpu0.iew.iewIQFullEvents                372777                       # Number of times the IQ has become full, causing a stall
system.cpu0.iew.iewIdleCycles                       0                       # Number of cycles IEW is idle
system.cpu0.iew.iewLSQFullEvents              3806551                       # Number of times the LSQ has become full, causing a stall
system.cpu0.iew.iewSquashCycles               4704218                       # Number of cycles IEW is squashing
system.cpu0.iew.iewUnblockCycles              4785699                       # Number of cycles IEW is unblocking
system.cpu0.iew.lsq.thread0.blockedLoads            0                       # Number of blocked loads due to partial load-store forwarding
system.cpu0.iew.lsq.thread0.cacheBlocked        78460                       # Number of times an access to memory failed due to the cache being blocked
system.cpu0.iew.lsq.thread0.forwLoads        10412109                       # Number of loads that had data forwarded from stores
system.cpu0.iew.lsq.thread0.ignoredResponses        27487                       # Number of memory responses ignored because the instruction is squashed
system.cpu0.iew.lsq.thread0.invAddrLoads            0                       # Number of loads ignored due to an invalid address
system.cpu0.iew.lsq.thread0.invAddrSwpfs            0                       # Number of software prefetches ignored due to an invalid address
system.cpu0.iew.lsq.thread0.memOrderViolation         7801                       # Number of memory ordering violations
system.cpu0.iew.lsq.thread0.rescheduledLoads      2406954                       # Number of loads that were rescheduled
system.cpu0.iew.lsq.thread0.squashedLoads     14664453                       # Number of loads squashed
system.cpu0.iew.lsq.thread0.squashedStores      4945971                       # Number of stores squashed
system.cpu0.iew.memOrderViolationEvents          7801                       # Number of memory order violations
system.cpu0.iew.predictedNotTakenIncorrect       858185                       # Number of branches that were predicted not taken incorrectly
system.cpu0.iew.predictedTakenIncorrect       3894154                       # Number of branches that were predicted taken incorrectly
system.cpu0.iew.wb_consumers                240148774                       # num instructions consuming a value
system.cpu0.iew.wb_count                    584635498                       # cumulative count of insts written-back
system.cpu0.iew.wb_fanout                    0.879085                       # average fanout of values written-back
system.cpu0.iew.wb_producers                211111073                       # num instructions producing a value
system.cpu0.iew.wb_rate                      0.546428                       # insts written-back per cycle
system.cpu0.iew.wb_sent                     584680511                       # cumulative count of insts sent to commit
system.cpu0.int_regfile_reads               719790567                       # number of integer regfile reads
system.cpu0.int_regfile_writes              373546295                       # number of integer regfile writes
system.cpu0.ipc                              0.525066                       # IPC: Instructions Per Cycle
system.cpu0.ipc_total                        0.525066                       # IPC: Total IPC of All Threads
system.cpu0.iq.FU_type_0::No_OpClass          1021042      0.17%      0.17% # Type of FU issued
system.cpu0.iq.FU_type_0::IntAlu            324858870     54.58%     54.75% # Type of FU issued
system.cpu0.iq.FU_type_0::IntMult             4139380      0.70%     55.44% # Type of FU issued
system.cpu0.iq.FU_type_0::IntDiv              1018054      0.17%     55.61% # Type of FU issued
system.cpu0.iq.FU_type_0::FloatAdd                  0      0.00%     55.61% # Type of FU issued
system.cpu0.iq.FU_type_0::FloatCmp                  4      0.00%     55.61% # Type of FU issued
system.cpu0.iq.FU_type_0::FloatCvt                 12      0.00%     55.61% # Type of FU issued
system.cpu0.iq.FU_type_0::FloatMult                 0      0.00%     55.61% # Type of FU issued
system.cpu0.iq.FU_type_0::FloatMultAcc              0      0.00%     55.61% # Type of FU issued
system.cpu0.iq.FU_type_0::FloatDiv                  2      0.00%     55.61% # Type of FU issued
system.cpu0.iq.FU_type_0::FloatMisc                 4      0.00%     55.61% # Type of FU issued
system.cpu0.iq.FU_type_0::FloatSqrt                 0      0.00%     55.61% # Type of FU issued
system.cpu0.iq.FU_type_0::SimdAdd                   0      0.00%     55.61% # Type of FU issued
system.cpu0.iq.FU_type_0::SimdAddAcc                0      0.00%     55.61% # Type of FU issued
system.cpu0.iq.FU_type_0::SimdAlu                   0      0.00%     55.61% # Type of FU issued
system.cpu0.iq.FU_type_0::SimdCmp                   0      0.00%     55.61% # Type of FU issued
system.cpu0.iq.FU_type_0::SimdCvt                   0      0.00%     55.61% # Type of FU issued
system.cpu0.iq.FU_type_0::SimdMisc                  0      0.00%     55.61% # Type of FU issued
system.cpu0.iq.FU_type_0::SimdMult                  0      0.00%     55.61% # Type of FU issued
system.cpu0.iq.FU_type_0::SimdMultAcc               0      0.00%     55.61% # Type of FU issued
system.cpu0.iq.FU_type_0::SimdShift                 0      0.00%     55.61% # Type of FU issued
system.cpu0.iq.FU_type_0::SimdShiftAcc              0      0.00%     55.61% # Type of FU issued
system.cpu0.iq.FU_type_0::SimdDiv                   0      0.00%     55.61% # Type of FU issued
system.cpu0.iq.FU_type_0::SimdSqrt                  0      0.00%     55.61% # Type of FU issued
system.cpu0.iq.FU_type_0::SimdFloatAdd              0      0.00%     55.61% # Type of FU issued
system.cpu0.iq.FU_type_0::SimdFloatAlu              0      0.00%     55.61% # Type of FU issued
system.cpu0.iq.FU_type_0::SimdFloatCmp              0      0.00%     55.61% # Type of FU issued
system.cpu0.iq.FU_type_0::SimdFloatCvt              0      0.00%     55.61% # Type of FU issued
system.cpu0.iq.FU_type_0::SimdFloatDiv              0      0.00%     55.61% # Type of FU issued
system.cpu0.iq.FU_type_0::SimdFloatMisc             0      0.00%     55.61% # Type of FU issued
system.cpu0.iq.FU_type_0::SimdFloatMult             0      0.00%     55.61% # Type of FU issued
system.cpu0.iq.FU_type_0::SimdFloatMultAcc            0      0.00%     55.61% # Type of FU issued
system.cpu0.iq.FU_type_0::SimdFloatSqrt             0      0.00%     55.61% # Type of FU issued
system.cpu0.iq.FU_type_0::SimdReduceAdd             0      0.00%     55.61% # Type of FU issued
system.cpu0.iq.FU_type_0::SimdReduceAlu             0      0.00%     55.61% # Type of FU issued
system.cpu0.iq.FU_type_0::SimdReduceCmp             0      0.00%     55.61% # Type of FU issued
system.cpu0.iq.FU_type_0::SimdFloatReduceAdd            0      0.00%     55.61% # Type of FU issued
system.cpu0.iq.FU_type_0::SimdFloatReduceCmp            0      0.00%     55.61% # Type of FU issued
system.cpu0.iq.FU_type_0::SimdAes                   0      0.00%     55.61% # Type of FU issued
system.cpu0.iq.FU_type_0::SimdAesMix                0      0.00%     55.61% # Type of FU issued
system.cpu0.iq.FU_type_0::SimdSha1Hash              0      0.00%     55.61% # Type of FU issued
system.cpu0.iq.FU_type_0::SimdSha1Hash2             0      0.00%     55.61% # Type of FU issued
system.cpu0.iq.FU_type_0::SimdSha256Hash            0      0.00%     55.61% # Type of FU issued
system.cpu0.iq.FU_type_0::SimdSha256Hash2            0      0.00%     55.61% # Type of FU issued
system.cpu0.iq.FU_type_0::SimdShaSigma2             0      0.00%     55.61% # Type of FU issued
system.cpu0.iq.FU_type_0::SimdShaSigma3             0      0.00%     55.61% # Type of FU issued
system.cpu0.iq.FU_type_0::SimdPredAlu               0      0.00%     55.61% # Type of FU issued
system.cpu0.iq.FU_type_0::MemRead           190382877     31.98%     87.60% # Type of FU issued
system.cpu0.iq.FU_type_0::MemWrite           73816939     12.40%    100.00% # Type of FU issued
system.cpu0.iq.FU_type_0::FloatMemRead             28      0.00%    100.00% # Type of FU issued
system.cpu0.iq.FU_type_0::FloatMemWrite            16      0.00%    100.00% # Type of FU issued
system.cpu0.iq.FU_type_0::IprAccess                 0      0.00%    100.00% # Type of FU issued
system.cpu0.iq.FU_type_0::InstPrefetch              0      0.00%    100.00% # Type of FU issued
system.cpu0.iq.FU_type_0::total             595237228                       # Type of FU issued
system.cpu0.iq.fp_alu_accesses                     68                       # Number of floating point alu accesses
system.cpu0.iq.fp_inst_queue_reads                134                       # Number of floating instruction queue reads
system.cpu0.iq.fp_inst_queue_wakeup_accesses           50                       # Number of floating instruction queue wakeup accesses
system.cpu0.iq.fp_inst_queue_writes               198                       # Number of floating instruction queue writes
system.cpu0.iq.fu_busy_cnt                     766654                       # FU busy when requested
system.cpu0.iq.fu_busy_rate                  0.001288                       # FU busy rate (busy events/executed inst)
system.cpu0.iq.fu_full::No_OpClass                  0      0.00%      0.00% # attempts to use FU when none available
system.cpu0.iq.fu_full::IntAlu                 150838     19.67%     19.67% # attempts to use FU when none available
system.cpu0.iq.fu_full::IntMult                     0      0.00%     19.67% # attempts to use FU when none available
system.cpu0.iq.fu_full::IntDiv                      0      0.00%     19.67% # attempts to use FU when none available
system.cpu0.iq.fu_full::FloatAdd                    0      0.00%     19.67% # attempts to use FU when none available
system.cpu0.iq.fu_full::FloatCmp                    0      0.00%     19.67% # attempts to use FU when none available
system.cpu0.iq.fu_full::FloatCvt                    0      0.00%     19.67% # attempts to use FU when none available
system.cpu0.iq.fu_full::FloatMult                   0      0.00%     19.67% # attempts to use FU when none available
system.cpu0.iq.fu_full::FloatMultAcc                0      0.00%     19.67% # attempts to use FU when none available
system.cpu0.iq.fu_full::FloatDiv                    0      0.00%     19.67% # attempts to use FU when none available
system.cpu0.iq.fu_full::FloatMisc                   0      0.00%     19.67% # attempts to use FU when none available
system.cpu0.iq.fu_full::FloatSqrt                   0      0.00%     19.67% # attempts to use FU when none available
system.cpu0.iq.fu_full::SimdAdd                     0      0.00%     19.67% # attempts to use FU when none available
system.cpu0.iq.fu_full::SimdAddAcc                  0      0.00%     19.67% # attempts to use FU when none available
system.cpu0.iq.fu_full::SimdAlu                     0      0.00%     19.67% # attempts to use FU when none available
system.cpu0.iq.fu_full::SimdCmp                     0      0.00%     19.67% # attempts to use FU when none available
system.cpu0.iq.fu_full::SimdCvt                     0      0.00%     19.67% # attempts to use FU when none available
system.cpu0.iq.fu_full::SimdMisc                    0      0.00%     19.67% # attempts to use FU when none available
system.cpu0.iq.fu_full::SimdMult                    0      0.00%     19.67% # attempts to use FU when none available
system.cpu0.iq.fu_full::SimdMultAcc                 0      0.00%     19.67% # attempts to use FU when none available
system.cpu0.iq.fu_full::SimdShift                   0      0.00%     19.67% # attempts to use FU when none available
system.cpu0.iq.fu_full::SimdShiftAcc                0      0.00%     19.67% # attempts to use FU when none available
system.cpu0.iq.fu_full::SimdDiv                     0      0.00%     19.67% # attempts to use FU when none available
system.cpu0.iq.fu_full::SimdSqrt                    0      0.00%     19.67% # attempts to use FU when none available
system.cpu0.iq.fu_full::SimdFloatAdd                0      0.00%     19.67% # attempts to use FU when none available
system.cpu0.iq.fu_full::SimdFloatAlu                0      0.00%     19.67% # attempts to use FU when none available
system.cpu0.iq.fu_full::SimdFloatCmp                0      0.00%     19.67% # attempts to use FU when none available
system.cpu0.iq.fu_full::SimdFloatCvt                0      0.00%     19.67% # attempts to use FU when none available
system.cpu0.iq.fu_full::SimdFloatDiv                0      0.00%     19.67% # attempts to use FU when none available
system.cpu0.iq.fu_full::SimdFloatMisc               0      0.00%     19.67% # attempts to use FU when none available
system.cpu0.iq.fu_full::SimdFloatMult               0      0.00%     19.67% # attempts to use FU when none available
system.cpu0.iq.fu_full::SimdFloatMultAcc            0      0.00%     19.67% # attempts to use FU when none available
system.cpu0.iq.fu_full::SimdFloatSqrt               0      0.00%     19.67% # attempts to use FU when none available
system.cpu0.iq.fu_full::SimdReduceAdd               0      0.00%     19.67% # attempts to use FU when none available
system.cpu0.iq.fu_full::SimdReduceAlu               0      0.00%     19.67% # attempts to use FU when none available
system.cpu0.iq.fu_full::SimdReduceCmp               0      0.00%     19.67% # attempts to use FU when none available
system.cpu0.iq.fu_full::SimdFloatReduceAdd            0      0.00%     19.67% # attempts to use FU when none available
system.cpu0.iq.fu_full::SimdFloatReduceCmp            0      0.00%     19.67% # attempts to use FU when none available
system.cpu0.iq.fu_full::SimdAes                     0      0.00%     19.67% # attempts to use FU when none available
system.cpu0.iq.fu_full::SimdAesMix                  0      0.00%     19.67% # attempts to use FU when none available
system.cpu0.iq.fu_full::SimdSha1Hash                0      0.00%     19.67% # attempts to use FU when none available
system.cpu0.iq.fu_full::SimdSha1Hash2               0      0.00%     19.67% # attempts to use FU when none available
system.cpu0.iq.fu_full::SimdSha256Hash              0      0.00%     19.67% # attempts to use FU when none available
system.cpu0.iq.fu_full::SimdSha256Hash2             0      0.00%     19.67% # attempts to use FU when none available
system.cpu0.iq.fu_full::SimdShaSigma2               0      0.00%     19.67% # attempts to use FU when none available
system.cpu0.iq.fu_full::SimdShaSigma3               0      0.00%     19.67% # attempts to use FU when none available
system.cpu0.iq.fu_full::SimdPredAlu                 0      0.00%     19.67% # attempts to use FU when none available
system.cpu0.iq.fu_full::MemRead                545506     71.15%     90.83% # attempts to use FU when none available
system.cpu0.iq.fu_full::MemWrite                70308      9.17%    100.00% # attempts to use FU when none available
system.cpu0.iq.fu_full::FloatMemRead                0      0.00%    100.00% # attempts to use FU when none available
system.cpu0.iq.fu_full::FloatMemWrite               2      0.00%    100.00% # attempts to use FU when none available
system.cpu0.iq.fu_full::IprAccess                   0      0.00%    100.00% # attempts to use FU when none available
system.cpu0.iq.fu_full::InstPrefetch                0      0.00%    100.00% # attempts to use FU when none available
system.cpu0.iq.int_alu_accesses             594982772                       # Number of integer alu accesses
system.cpu0.iq.int_inst_queue_reads        2174641584                       # Number of integer instruction queue reads
system.cpu0.iq.int_inst_queue_wakeup_accesses    584635448                       # Number of integer instruction queue wakeup accesses
system.cpu0.iq.int_inst_queue_writes        638190149                       # Number of integer instruction queue writes
system.cpu0.iq.iqInstsAdded                 598290420                       # Number of instructions added to the IQ (excludes non-spec)
system.cpu0.iq.iqInstsIssued                595237228                       # Number of instructions issued
system.cpu0.iq.iqNonSpecInstsAdded            1946370                       # Number of non-speculative instructions added to the IQ
system.cpu0.iq.iqSquashedInstsExamined       37946495                       # Number of squashed instructions iterated over during squash; mainly for profiling
system.cpu0.iq.iqSquashedInstsIssued            50069                       # Number of squashed instructions issued
system.cpu0.iq.iqSquashedNonSpecRemoved        413961                       # Number of squashed non-spec instructions that were removed
system.cpu0.iq.iqSquashedOperandsExamined     16986101                       # Number of squashed operands that are examined and possibly removed from graph
system.cpu0.iq.issued_per_cycle::samples    983350540                       # Number of insts issued each cycle
system.cpu0.iq.issued_per_cycle::mean        0.605315                       # Number of insts issued each cycle
system.cpu0.iq.issued_per_cycle::stdev       0.814051                       # Number of insts issued each cycle
system.cpu0.iq.issued_per_cycle::underflows            0      0.00%      0.00% # Number of insts issued each cycle
system.cpu0.iq.issued_per_cycle::0          550446294     55.98%     55.98% # Number of insts issued each cycle
system.cpu0.iq.issued_per_cycle::1          302892911     30.80%     86.78% # Number of insts issued each cycle
system.cpu0.iq.issued_per_cycle::2          106534860     10.83%     97.61% # Number of insts issued each cycle
system.cpu0.iq.issued_per_cycle::3           17821720      1.81%     99.42% # Number of insts issued each cycle
system.cpu0.iq.issued_per_cycle::4            3888968      0.40%     99.82% # Number of insts issued each cycle
system.cpu0.iq.issued_per_cycle::5             527918      0.05%     99.87% # Number of insts issued each cycle
system.cpu0.iq.issued_per_cycle::6            1106740      0.11%     99.99% # Number of insts issued each cycle
system.cpu0.iq.issued_per_cycle::7              75497      0.01%     99.99% # Number of insts issued each cycle
system.cpu0.iq.issued_per_cycle::8              55632      0.01%    100.00% # Number of insts issued each cycle
system.cpu0.iq.issued_per_cycle::overflows            0      0.00%    100.00% # Number of insts issued each cycle
system.cpu0.iq.issued_per_cycle::min_value            0                       # Number of insts issued each cycle
system.cpu0.iq.issued_per_cycle::max_value            8                       # Number of insts issued each cycle
system.cpu0.iq.issued_per_cycle::total      983350540                       # Number of insts issued each cycle
system.cpu0.iq.rate                          0.556337                       # Inst issue rate
system.cpu0.iq.vec_alu_accesses                     0                       # Number of vector alu accesses
system.cpu0.iq.vec_inst_queue_reads                 0                       # Number of vector instruction queue reads
system.cpu0.iq.vec_inst_queue_wakeup_accesses            0                       # Number of vector instruction queue wakeup accesses
system.cpu0.iq.vec_inst_queue_writes                0                       # Number of vector instruction queue writes
system.cpu0.itb.accesses                            0                       # DTB accesses
system.cpu0.itb.hits                                0                       # DTB hits
system.cpu0.itb.misses                              0                       # DTB misses
system.cpu0.itb.read_accesses                       0                       # DTB read accesses
system.cpu0.itb.read_hits                           0                       # DTB read hits
system.cpu0.itb.read_misses                         0                       # DTB read misses
system.cpu0.itb.write_accesses                      0                       # DTB write accesses
system.cpu0.itb.write_hits                          0                       # DTB write hits
system.cpu0.itb.write_misses                        0                       # DTB write misses
system.cpu0.memDep0.conflictingLoads          7779607                       # Number of conflicting loads.
system.cpu0.memDep0.conflictingStores         1780758                       # Number of conflicting stores.
system.cpu0.memDep0.insertedLoads           189421473                       # Number of loads inserted to the mem dependence unit.
system.cpu0.memDep0.insertedStores           75270163                       # Number of stores inserted to the mem dependence unit.
system.cpu0.misc_regfile_reads                   1039                       # number of misc regfile reads
system.cpu0.misc_regfile_writes                    22                       # number of misc regfile writes
system.cpu0.numCycles                      1069921830                       # number of cpu cycles simulated
system.cpu0.numWorkItemsCompleted                   0                       # number of work items this cpu completed
system.cpu0.numWorkItemsStarted                     0                       # number of work items this cpu started
system.cpu0.quiesceCycles                    10918758                       # Total number of cycles that CPU has spent quiesced or waiting for an interrupt
system.cpu0.rename.BlockCycles               94453448                       # Number of cycles rename is blocking
system.cpu0.rename.CommittedMaps            357808143                       # Number of HB maps that are committed
system.cpu0.rename.IQFullEvents               3060750                       # Number of times rename has blocked due to IQ full
system.cpu0.rename.IdleCycles               439761245                       # Number of cycles rename is idle
system.cpu0.rename.LQFullEvents               6327451                       # Number of times rename has blocked due to LQ full
system.cpu0.rename.ROBFullEvents                 7088                       # Number of times rename has blocked due to ROB full
system.cpu0.rename.RenameLookups            741664862                       # Number of register rename lookups that rename has made
system.cpu0.rename.RenamedInsts             607395862                       # Number of instructions processed by rename
system.cpu0.rename.RenamedOperands          388752516                       # Number of destination operands rename has renamed
system.cpu0.rename.RunCycles                427099026                       # Number of cycles rename is running
system.cpu0.rename.SQFullEvents               7665598                       # Number of times rename has blocked due to SQ full
system.cpu0.rename.SquashCycles               4704218                       # Number of cycles rename is squashing
system.cpu0.rename.UnblockCycles             17231102                       # Number of cycles rename is unblocking
system.cpu0.rename.UndoneMaps                30944365                       # Number of HB maps that are undone due to squashing
system.cpu0.rename.fp_rename_lookups               40                       # Number of floating rename lookups
system.cpu0.rename.int_rename_lookups       741664822                       # Number of integer rename lookups
system.cpu0.rename.serializeStallCycles        101501                       # count of cycles rename stalled for serializing inst
system.cpu0.rename.serializingInsts              3220                       # count of serializing insts renamed
system.cpu0.rename.skidInsts                  7351491                       # count of insts added to the skid buffer
system.cpu0.rename.tempSerializingInsts          3210                       # count of temporary serializing insts renamed
system.cpu0.rob.rob_reads                  1557062428                       # The number of ROB reads
system.cpu0.rob.rob_writes                 1208114708                       # The number of ROB writes
system.cpu0.timesIdled                       15813442                       # Number of times that the entire CPU went into an idle state and unscheduled itself
system.cpu0.workload.numSyscalls                 1006                       # Number of system calls
system.cpu1.branchPred.BTBCorrect                   0                       # Number of correct BTB predictions (this stat may not work properly.
system.cpu1.branchPred.BTBHitPct            80.133841                       # BTB Hit Percentage
system.cpu1.branchPred.BTBHits                2947761                       # Number of BTB hits
system.cpu1.branchPred.BTBLookups             3678547                       # Number of BTB lookups
system.cpu1.branchPred.RASInCorrect                 0                       # Number of incorrect RAS predictions.
system.cpu1.branchPred.condIncorrect           386157                       # Number of conditional branches incorrect
system.cpu1.branchPred.condPredicted          4901286                       # Number of conditional branches predicted
system.cpu1.branchPred.indirectHits            137369                       # Number of indirect target hits.
system.cpu1.branchPred.indirectLookups         140733                       # Number of indirect predictor lookups.
system.cpu1.branchPred.indirectMisses            3364                       # Number of indirect misses.
system.cpu1.branchPred.lookups                5520908                       # Number of BP lookups
system.cpu1.branchPred.usedRAS                      0                       # Number of times the RAS was used to get a target.
system.cpu1.branchPredindirectMispredicted         8694                       # Number of mispredicted indirect branches.
system.cpu1.commit.amos                        509141                       # Number of atomic instructions committed
system.cpu1.commit.branchMispredicts           287634                       # The number of times a branch was mispredicted
system.cpu1.commit.branches                   4420327                       # Number of branches committed
system.cpu1.commit.bw_lim_events               498285                       # number cycles where commit BW limit reached
system.cpu1.commit.commitNonSpecStalls        1528162                       # The number of times commit has been forced to stall to communicate backwards
system.cpu1.commit.commitSquashedInsts        2555341                       # The number of squashed insts skipped by commit
system.cpu1.commit.committedInsts            19247383                       # Number of instructions committed
system.cpu1.commit.committedOps              19756737                       # Number of ops (including micro ops) committed
system.cpu1.commit.committed_per_cycle::samples    114476754                       # Number of insts commited each cycle
system.cpu1.commit.committed_per_cycle::mean     0.172583                       # Number of insts commited each cycle
system.cpu1.commit.committed_per_cycle::stdev     0.821702                       # Number of insts commited each cycle
system.cpu1.commit.committed_per_cycle::underflows            0      0.00%      0.00% # Number of insts commited each cycle
system.cpu1.commit.committed_per_cycle::0    106289451     92.85%     92.85% # Number of insts commited each cycle
system.cpu1.commit.committed_per_cycle::1      4059250      3.55%     96.39% # Number of insts commited each cycle
system.cpu1.commit.committed_per_cycle::2      1358798      1.19%     97.58% # Number of insts commited each cycle
system.cpu1.commit.committed_per_cycle::3      1284634      1.12%     98.70% # Number of insts commited each cycle
system.cpu1.commit.committed_per_cycle::4       362364      0.32%     99.02% # Number of insts commited each cycle
system.cpu1.commit.committed_per_cycle::5        96502      0.08%     99.10% # Number of insts commited each cycle
system.cpu1.commit.committed_per_cycle::6       484547      0.42%     99.53% # Number of insts commited each cycle
system.cpu1.commit.committed_per_cycle::7        42923      0.04%     99.56% # Number of insts commited each cycle
system.cpu1.commit.committed_per_cycle::8       498285      0.44%    100.00% # Number of insts commited each cycle
system.cpu1.commit.committed_per_cycle::overflows            0      0.00%    100.00% # Number of insts commited each cycle
system.cpu1.commit.committed_per_cycle::min_value            0                       # Number of insts commited each cycle
system.cpu1.commit.committed_per_cycle::max_value            8                       # Number of insts commited each cycle
system.cpu1.commit.committed_per_cycle::total    114476754                       # Number of insts commited each cycle
system.cpu1.commit.fp_insts                        12                       # Number of committed floating point instructions.
system.cpu1.commit.function_calls              227566                       # Number of function calls committed.
system.cpu1.commit.int_insts                 18556077                       # Number of committed integer instructions.
system.cpu1.commit.loads                      5320760                       # Number of loads committed
system.cpu1.commit.membars                    1018401                       # Number of memory barriers committed
system.cpu1.commit.op_class_0::No_OpClass      1018401      5.15%      5.15% # Class of committed instruction
system.cpu1.commit.op_class_0::IntAlu        11648321     58.96%     64.11% # Class of committed instruction
system.cpu1.commit.op_class_0::IntMult             42      0.00%     64.11% # Class of committed instruction
system.cpu1.commit.op_class_0::IntDiv              84      0.00%     64.11% # Class of committed instruction
system.cpu1.commit.op_class_0::FloatAdd             0      0.00%     64.11% # Class of committed instruction
system.cpu1.commit.op_class_0::FloatCmp             0      0.00%     64.11% # Class of committed instruction
system.cpu1.commit.op_class_0::FloatCvt             0      0.00%     64.11% # Class of committed instruction
system.cpu1.commit.op_class_0::FloatMult            0      0.00%     64.11% # Class of committed instruction
system.cpu1.commit.op_class_0::FloatMultAcc            0      0.00%     64.11% # Class of committed instruction
system.cpu1.commit.op_class_0::FloatDiv             0      0.00%     64.11% # Class of committed instruction
system.cpu1.commit.op_class_0::FloatMisc            0      0.00%     64.11% # Class of committed instruction
system.cpu1.commit.op_class_0::FloatSqrt            0      0.00%     64.11% # Class of committed instruction
system.cpu1.commit.op_class_0::SimdAdd              0      0.00%     64.11% # Class of committed instruction
system.cpu1.commit.op_class_0::SimdAddAcc            0      0.00%     64.11% # Class of committed instruction
system.cpu1.commit.op_class_0::SimdAlu              0      0.00%     64.11% # Class of committed instruction
system.cpu1.commit.op_class_0::SimdCmp              0      0.00%     64.11% # Class of committed instruction
system.cpu1.commit.op_class_0::SimdCvt              0      0.00%     64.11% # Class of committed instruction
system.cpu1.commit.op_class_0::SimdMisc             0      0.00%     64.11% # Class of committed instruction
system.cpu1.commit.op_class_0::SimdMult             0      0.00%     64.11% # Class of committed instruction
system.cpu1.commit.op_class_0::SimdMultAcc            0      0.00%     64.11% # Class of committed instruction
system.cpu1.commit.op_class_0::SimdShift            0      0.00%     64.11% # Class of committed instruction
system.cpu1.commit.op_class_0::SimdShiftAcc            0      0.00%     64.11% # Class of committed instruction
system.cpu1.commit.op_class_0::SimdDiv              0      0.00%     64.11% # Class of committed instruction
system.cpu1.commit.op_class_0::SimdSqrt             0      0.00%     64.11% # Class of committed instruction
system.cpu1.commit.op_class_0::SimdFloatAdd            0      0.00%     64.11% # Class of committed instruction
system.cpu1.commit.op_class_0::SimdFloatAlu            0      0.00%     64.11% # Class of committed instruction
system.cpu1.commit.op_class_0::SimdFloatCmp            0      0.00%     64.11% # Class of committed instruction
system.cpu1.commit.op_class_0::SimdFloatCvt            0      0.00%     64.11% # Class of committed instruction
system.cpu1.commit.op_class_0::SimdFloatDiv            0      0.00%     64.11% # Class of committed instruction
system.cpu1.commit.op_class_0::SimdFloatMisc            0      0.00%     64.11% # Class of committed instruction
system.cpu1.commit.op_class_0::SimdFloatMult            0      0.00%     64.11% # Class of committed instruction
system.cpu1.commit.op_class_0::SimdFloatMultAcc            0      0.00%     64.11% # Class of committed instruction
system.cpu1.commit.op_class_0::SimdFloatSqrt            0      0.00%     64.11% # Class of committed instruction
system.cpu1.commit.op_class_0::SimdReduceAdd            0      0.00%     64.11% # Class of committed instruction
system.cpu1.commit.op_class_0::SimdReduceAlu            0      0.00%     64.11% # Class of committed instruction
system.cpu1.commit.op_class_0::SimdReduceCmp            0      0.00%     64.11% # Class of committed instruction
system.cpu1.commit.op_class_0::SimdFloatReduceAdd            0      0.00%     64.11% # Class of committed instruction
system.cpu1.commit.op_class_0::SimdFloatReduceCmp            0      0.00%     64.11% # Class of committed instruction
system.cpu1.commit.op_class_0::SimdAes              0      0.00%     64.11% # Class of committed instruction
system.cpu1.commit.op_class_0::SimdAesMix            0      0.00%     64.11% # Class of committed instruction
system.cpu1.commit.op_class_0::SimdSha1Hash            0      0.00%     64.11% # Class of committed instruction
system.cpu1.commit.op_class_0::SimdSha1Hash2            0      0.00%     64.11% # Class of committed instruction
system.cpu1.commit.op_class_0::SimdSha256Hash            0      0.00%     64.11% # Class of committed instruction
system.cpu1.commit.op_class_0::SimdSha256Hash2            0      0.00%     64.11% # Class of committed instruction
system.cpu1.commit.op_class_0::SimdShaSigma2            0      0.00%     64.11% # Class of committed instruction
system.cpu1.commit.op_class_0::SimdShaSigma3            0      0.00%     64.11% # Class of committed instruction
system.cpu1.commit.op_class_0::SimdPredAlu            0      0.00%     64.11% # Class of committed instruction
system.cpu1.commit.op_class_0::MemRead        5829901     29.51%     93.62% # Class of committed instruction
system.cpu1.commit.op_class_0::MemWrite       1259976      6.38%    100.00% # Class of committed instruction
system.cpu1.commit.op_class_0::FloatMemRead            0      0.00%    100.00% # Class of committed instruction
system.cpu1.commit.op_class_0::FloatMemWrite           12      0.00%    100.00% # Class of committed instruction
system.cpu1.commit.op_class_0::IprAccess            0      0.00%    100.00% # Class of committed instruction
system.cpu1.commit.op_class_0::InstPrefetch            0      0.00%    100.00% # Class of committed instruction
system.cpu1.commit.op_class_0::total         19756737                       # Class of committed instruction
system.cpu1.commit.refs                       7089889                       # Number of memory references committed
system.cpu1.commit.swp_count                        0                       # Number of s/w prefetches committed
system.cpu1.commit.vec_insts                        0                       # Number of committed Vector instructions.
system.cpu1.committedInsts                   19247383                       # Number of Instructions Simulated
system.cpu1.committedOps                     19756737                       # Number of Ops (including micro ops) Simulated
system.cpu1.cpi                              5.996101                       # CPI: Cycles Per Instruction
system.cpu1.cpi_total                        5.996101                       # CPI: Total CPI of All Threads
system.cpu1.decode.BlockedCycles            101850745                       # Number of cycles decode is blocked
system.cpu1.decode.BranchMispred               106278                       # Number of times decode detected a branch misprediction
system.cpu1.decode.BranchResolved             2810434                       # Number of times decode resolved a branch
system.cpu1.decode.DecodedInsts              23385622                       # Number of instructions handled by decode
system.cpu1.decode.IdleCycles                 3233244                       # Number of cycles decode is idle
system.cpu1.decode.RunCycles                  8429254                       # Number of cycles decode is running
system.cpu1.decode.SquashCycles                288056                       # Number of cycles decode is squashing
system.cpu1.decode.SquashedInsts               256534                       # Number of squashed instructions handled by decode
system.cpu1.decode.UnblockCycles              1179640                       # Number of cycles decode is unblocking
system.cpu1.dtb.accesses                            0                       # DTB accesses
system.cpu1.dtb.hits                                0                       # DTB hits
system.cpu1.dtb.misses                              0                       # DTB misses
system.cpu1.dtb.read_accesses                       0                       # DTB read accesses
system.cpu1.dtb.read_hits                           0                       # DTB read hits
system.cpu1.dtb.read_misses                         0                       # DTB read misses
system.cpu1.dtb.write_accesses                      0                       # DTB write accesses
system.cpu1.dtb.write_hits                          0                       # DTB write hits
system.cpu1.dtb.write_misses                        0                       # DTB write misses
system.cpu1.fetch.Branches                    5520908                       # Number of branches that fetch encountered
system.cpu1.fetch.CacheLines                  3187457                       # Number of cache lines fetched
system.cpu1.fetch.Cycles                    111104234                       # Number of cycles fetch has run and was not squashing or blocked
system.cpu1.fetch.IcacheSquashes                34768                       # Number of outstanding Icache misses that were squashed
system.cpu1.fetch.IcacheWaitRetryStallCycles           18                       # Number of stall cycles due to full MSHR
system.cpu1.fetch.Insts                      23957487                       # Number of instructions fetch has processed
system.cpu1.fetch.MiscStallCycles                   3                       # Number of cycles fetch has spent waiting on interrupts, or bad addresses, or out of MSHRs
system.cpu1.fetch.SquashCycles                 773158                       # Number of cycles fetch has spent squashing
system.cpu1.fetch.branchRate                 0.047838                       # Number of branch fetches per cycle
system.cpu1.fetch.icacheStallCycles           3490105                       # Number of cycles fetch is stalled on an Icache miss
system.cpu1.fetch.predictedBranches           3085130                       # Number of branches that fetch has predicted taken
system.cpu1.fetch.rate                       0.207587                       # Number of inst fetches per cycle
system.cpu1.fetch.rateDist::samples         114980939                       # Number of instructions fetched each cycle (Total)
system.cpu1.fetch.rateDist::mean             0.212798                       # Number of instructions fetched each cycle (Total)
system.cpu1.fetch.rateDist::stdev            0.639746                       # Number of instructions fetched each cycle (Total)
system.cpu1.fetch.rateDist::underflows              0      0.00%      0.00% # Number of instructions fetched each cycle (Total)
system.cpu1.fetch.rateDist::0                99982950     86.96%     86.96% # Number of instructions fetched each cycle (Total)
system.cpu1.fetch.rateDist::1                 8939522      7.77%     94.73% # Number of instructions fetched each cycle (Total)
system.cpu1.fetch.rateDist::2                 3531352      3.07%     97.80% # Number of instructions fetched each cycle (Total)
system.cpu1.fetch.rateDist::3                 1759831      1.53%     99.33% # Number of instructions fetched each cycle (Total)
system.cpu1.fetch.rateDist::4                  664685      0.58%     99.91% # Number of instructions fetched each cycle (Total)
system.cpu1.fetch.rateDist::5                   90048      0.08%     99.99% # Number of instructions fetched each cycle (Total)
system.cpu1.fetch.rateDist::6                   11503      0.01%    100.00% # Number of instructions fetched each cycle (Total)
system.cpu1.fetch.rateDist::7                     344      0.00%    100.00% # Number of instructions fetched each cycle (Total)
system.cpu1.fetch.rateDist::8                     704      0.00%    100.00% # Number of instructions fetched each cycle (Total)
system.cpu1.fetch.rateDist::overflows               0      0.00%    100.00% # Number of instructions fetched each cycle (Total)
system.cpu1.fetch.rateDist::min_value               0                       # Number of instructions fetched each cycle (Total)
system.cpu1.fetch.rateDist::max_value               8                       # Number of instructions fetched each cycle (Total)
system.cpu1.fetch.rateDist::total           114980939                       # Number of instructions fetched each cycle (Total)
system.cpu1.fp_regfile_reads                       12                       # number of floating regfile reads
system.cpu1.idleCycles                         428316                       # Total number of cycles that the CPU has spent unscheduled due to idling
system.cpu1.iew.branchMispredicts              307239                       # Number of branch mispredicts detected at execute
system.cpu1.iew.exec_branches                 4781315                       # Number of branches executed
system.cpu1.iew.exec_nop                            0                       # number of nop insts executed
system.cpu1.iew.exec_rate                    0.186965                       # Inst execution rate
system.cpu1.iew.exec_refs                     7789227                       # number of memory reference insts executed
system.cpu1.iew.exec_stores                   1860231                       # Number of stores executed
system.cpu1.iew.exec_swp                            0                       # number of swp insts executed
system.cpu1.iew.iewBlockCycles               87334242                       # Number of cycles IEW is blocking
system.cpu1.iew.iewDispLoadInsts              5989154                       # Number of dispatched load instructions
system.cpu1.iew.iewDispNonSpecInsts            509987                       # Number of dispatched non-speculative instructions
system.cpu1.iew.iewDispSquashedInsts           285411                       # Number of squashed instructions skipped by dispatch
system.cpu1.iew.iewDispStoreInsts             1937160                       # Number of dispatched store instructions
system.cpu1.iew.iewDispatchedInsts           22305885                       # Number of instructions dispatched to IQ
system.cpu1.iew.iewExecLoadInsts              5928996                       # Number of load instructions executed
system.cpu1.iew.iewExecSquashedInsts           282917                       # Number of squashed instructions skipped in execute
system.cpu1.iew.iewExecutedInsts             21577435                       # Number of executed instructions
system.cpu1.iew.iewIQFullEvents                350773                       # Number of times the IQ has become full, causing a stall
system.cpu1.iew.iewIdleCycles                       0                       # Number of cycles IEW is idle
system.cpu1.iew.iewLSQFullEvents               983026                       # Number of times the LSQ has become full, causing a stall
system.cpu1.iew.iewSquashCycles                288056                       # Number of cycles IEW is squashing
system.cpu1.iew.iewUnblockCycles              1990899                       # Number of cycles IEW is unblocking
system.cpu1.iew.lsq.thread0.blockedLoads            0                       # Number of blocked loads due to partial load-store forwarding
system.cpu1.iew.lsq.thread0.cacheBlocked        20156                       # Number of times an access to memory failed due to the cache being blocked
system.cpu1.iew.lsq.thread0.forwLoads          132321                       # Number of loads that had data forwarded from stores
system.cpu1.iew.lsq.thread0.ignoredResponses         4619                       # Number of memory responses ignored because the instruction is squashed
system.cpu1.iew.lsq.thread0.invAddrLoads            0                       # Number of loads ignored due to an invalid address
system.cpu1.iew.lsq.thread0.invAddrSwpfs            0                       # Number of software prefetches ignored due to an invalid address
system.cpu1.iew.lsq.thread0.memOrderViolation          423                       # Number of memory ordering violations
system.cpu1.iew.lsq.thread0.rescheduledLoads         1256                       # Number of loads that were rescheduled
system.cpu1.iew.lsq.thread0.squashedLoads       668394                       # Number of loads squashed
system.cpu1.iew.lsq.thread0.squashedStores       168031                       # Number of stores squashed
system.cpu1.iew.memOrderViolationEvents           423                       # Number of memory order violations
system.cpu1.iew.predictedNotTakenIncorrect        92797                       # Number of branches that were predicted not taken incorrectly
system.cpu1.iew.predictedTakenIncorrect        214442                       # Number of branches that were predicted taken incorrectly
system.cpu1.iew.wb_consumers                 12239176                       # num instructions consuming a value
system.cpu1.iew.wb_count                     21282028                       # cumulative count of insts written-back
system.cpu1.iew.wb_fanout                    0.852616                       # average fanout of values written-back
system.cpu1.iew.wb_producers                 10435313                       # num instructions producing a value
system.cpu1.iew.wb_rate                      0.184405                       # insts written-back per cycle
system.cpu1.iew.wb_sent                      21289164                       # cumulative count of insts sent to commit
system.cpu1.int_regfile_reads                26898838                       # number of integer regfile reads
system.cpu1.int_regfile_writes               14265248                       # number of integer regfile writes
system.cpu1.ipc                              0.166775                       # IPC: Instructions Per Cycle
system.cpu1.ipc_total                        0.166775                       # IPC: Total IPC of All Threads
system.cpu1.iq.FU_type_0::No_OpClass          1018594      4.66%      4.66% # Type of FU issued
system.cpu1.iq.FU_type_0::IntAlu             12967458     59.32%     63.98% # Type of FU issued
system.cpu1.iq.FU_type_0::IntMult                  49      0.00%     63.98% # Type of FU issued
system.cpu1.iq.FU_type_0::IntDiv                   84      0.00%     63.98% # Type of FU issued
system.cpu1.iq.FU_type_0::FloatAdd                  0      0.00%     63.98% # Type of FU issued
system.cpu1.iq.FU_type_0::FloatCmp                  0      0.00%     63.98% # Type of FU issued
system.cpu1.iq.FU_type_0::FloatCvt                  0      0.00%     63.98% # Type of FU issued
system.cpu1.iq.FU_type_0::FloatMult                 0      0.00%     63.98% # Type of FU issued
system.cpu1.iq.FU_type_0::FloatMultAcc              0      0.00%     63.98% # Type of FU issued
system.cpu1.iq.FU_type_0::FloatDiv                  0      0.00%     63.98% # Type of FU issued
system.cpu1.iq.FU_type_0::FloatMisc                 0      0.00%     63.98% # Type of FU issued
system.cpu1.iq.FU_type_0::FloatSqrt                 0      0.00%     63.98% # Type of FU issued
system.cpu1.iq.FU_type_0::SimdAdd                   0      0.00%     63.98% # Type of FU issued
system.cpu1.iq.FU_type_0::SimdAddAcc                0      0.00%     63.98% # Type of FU issued
system.cpu1.iq.FU_type_0::SimdAlu                   0      0.00%     63.98% # Type of FU issued
system.cpu1.iq.FU_type_0::SimdCmp                   0      0.00%     63.98% # Type of FU issued
system.cpu1.iq.FU_type_0::SimdCvt                   0      0.00%     63.98% # Type of FU issued
system.cpu1.iq.FU_type_0::SimdMisc                  0      0.00%     63.98% # Type of FU issued
system.cpu1.iq.FU_type_0::SimdMult                  0      0.00%     63.98% # Type of FU issued
system.cpu1.iq.FU_type_0::SimdMultAcc               0      0.00%     63.98% # Type of FU issued
system.cpu1.iq.FU_type_0::SimdShift                 0      0.00%     63.98% # Type of FU issued
system.cpu1.iq.FU_type_0::SimdShiftAcc              0      0.00%     63.98% # Type of FU issued
system.cpu1.iq.FU_type_0::SimdDiv                   0      0.00%     63.98% # Type of FU issued
system.cpu1.iq.FU_type_0::SimdSqrt                  0      0.00%     63.98% # Type of FU issued
system.cpu1.iq.FU_type_0::SimdFloatAdd              0      0.00%     63.98% # Type of FU issued
system.cpu1.iq.FU_type_0::SimdFloatAlu              0      0.00%     63.98% # Type of FU issued
system.cpu1.iq.FU_type_0::SimdFloatCmp              0      0.00%     63.98% # Type of FU issued
system.cpu1.iq.FU_type_0::SimdFloatCvt              0      0.00%     63.98% # Type of FU issued
system.cpu1.iq.FU_type_0::SimdFloatDiv              0      0.00%     63.98% # Type of FU issued
system.cpu1.iq.FU_type_0::SimdFloatMisc             0      0.00%     63.98% # Type of FU issued
system.cpu1.iq.FU_type_0::SimdFloatMult             0      0.00%     63.98% # Type of FU issued
system.cpu1.iq.FU_type_0::SimdFloatMultAcc            0      0.00%     63.98% # Type of FU issued
system.cpu1.iq.FU_type_0::SimdFloatSqrt             0      0.00%     63.98% # Type of FU issued
system.cpu1.iq.FU_type_0::SimdReduceAdd             0      0.00%     63.98% # Type of FU issued
system.cpu1.iq.FU_type_0::SimdReduceAlu             0      0.00%     63.98% # Type of FU issued
system.cpu1.iq.FU_type_0::SimdReduceCmp             0      0.00%     63.98% # Type of FU issued
system.cpu1.iq.FU_type_0::SimdFloatReduceAdd            0      0.00%     63.98% # Type of FU issued
system.cpu1.iq.FU_type_0::SimdFloatReduceCmp            0      0.00%     63.98% # Type of FU issued
system.cpu1.iq.FU_type_0::SimdAes                   0      0.00%     63.98% # Type of FU issued
system.cpu1.iq.FU_type_0::SimdAesMix                0      0.00%     63.98% # Type of FU issued
system.cpu1.iq.FU_type_0::SimdSha1Hash              0      0.00%     63.98% # Type of FU issued
system.cpu1.iq.FU_type_0::SimdSha1Hash2             0      0.00%     63.98% # Type of FU issued
system.cpu1.iq.FU_type_0::SimdSha256Hash            0      0.00%     63.98% # Type of FU issued
system.cpu1.iq.FU_type_0::SimdSha256Hash2            0      0.00%     63.98% # Type of FU issued
system.cpu1.iq.FU_type_0::SimdShaSigma2             0      0.00%     63.98% # Type of FU issued
system.cpu1.iq.FU_type_0::SimdShaSigma3             0      0.00%     63.98% # Type of FU issued
system.cpu1.iq.FU_type_0::SimdPredAlu               0      0.00%     63.98% # Type of FU issued
system.cpu1.iq.FU_type_0::MemRead             6506437     29.76%     93.74% # Type of FU issued
system.cpu1.iq.FU_type_0::MemWrite            1367718      6.26%    100.00% # Type of FU issued
system.cpu1.iq.FU_type_0::FloatMemRead              0      0.00%    100.00% # Type of FU issued
system.cpu1.iq.FU_type_0::FloatMemWrite            12      0.00%    100.00% # Type of FU issued
system.cpu1.iq.FU_type_0::IprAccess                 0      0.00%    100.00% # Type of FU issued
system.cpu1.iq.FU_type_0::InstPrefetch              0      0.00%    100.00% # Type of FU issued
system.cpu1.iq.FU_type_0::total              21860352                       # Type of FU issued
system.cpu1.iq.fp_alu_accesses                     14                       # Number of floating point alu accesses
system.cpu1.iq.fp_inst_queue_reads                 26                       # Number of floating instruction queue reads
system.cpu1.iq.fp_inst_queue_wakeup_accesses           12                       # Number of floating instruction queue wakeup accesses
system.cpu1.iq.fp_inst_queue_writes                12                       # Number of floating instruction queue writes
system.cpu1.iq.fu_busy_cnt                     602308                       # FU busy when requested
system.cpu1.iq.fu_busy_rate                  0.027553                       # FU busy rate (busy events/executed inst)
system.cpu1.iq.fu_full::No_OpClass                  0      0.00%      0.00% # attempts to use FU when none available
system.cpu1.iq.fu_full::IntAlu                 125891     20.90%     20.90% # attempts to use FU when none available
system.cpu1.iq.fu_full::IntMult                     0      0.00%     20.90% # attempts to use FU when none available
system.cpu1.iq.fu_full::IntDiv                      0      0.00%     20.90% # attempts to use FU when none available
system.cpu1.iq.fu_full::FloatAdd                    0      0.00%     20.90% # attempts to use FU when none available
system.cpu1.iq.fu_full::FloatCmp                    0      0.00%     20.90% # attempts to use FU when none available
system.cpu1.iq.fu_full::FloatCvt                    0      0.00%     20.90% # attempts to use FU when none available
system.cpu1.iq.fu_full::FloatMult                   0      0.00%     20.90% # attempts to use FU when none available
system.cpu1.iq.fu_full::FloatMultAcc                0      0.00%     20.90% # attempts to use FU when none available
system.cpu1.iq.fu_full::FloatDiv                    0      0.00%     20.90% # attempts to use FU when none available
system.cpu1.iq.fu_full::FloatMisc                   0      0.00%     20.90% # attempts to use FU when none available
system.cpu1.iq.fu_full::FloatSqrt                   0      0.00%     20.90% # attempts to use FU when none available
system.cpu1.iq.fu_full::SimdAdd                     0      0.00%     20.90% # attempts to use FU when none available
system.cpu1.iq.fu_full::SimdAddAcc                  0      0.00%     20.90% # attempts to use FU when none available
system.cpu1.iq.fu_full::SimdAlu                     0      0.00%     20.90% # attempts to use FU when none available
system.cpu1.iq.fu_full::SimdCmp                     0      0.00%     20.90% # attempts to use FU when none available
system.cpu1.iq.fu_full::SimdCvt                     0      0.00%     20.90% # attempts to use FU when none available
system.cpu1.iq.fu_full::SimdMisc                    0      0.00%     20.90% # attempts to use FU when none available
system.cpu1.iq.fu_full::SimdMult                    0      0.00%     20.90% # attempts to use FU when none available
system.cpu1.iq.fu_full::SimdMultAcc                 0      0.00%     20.90% # attempts to use FU when none available
system.cpu1.iq.fu_full::SimdShift                   0      0.00%     20.90% # attempts to use FU when none available
system.cpu1.iq.fu_full::SimdShiftAcc                0      0.00%     20.90% # attempts to use FU when none available
system.cpu1.iq.fu_full::SimdDiv                     0      0.00%     20.90% # attempts to use FU when none available
system.cpu1.iq.fu_full::SimdSqrt                    0      0.00%     20.90% # attempts to use FU when none available
system.cpu1.iq.fu_full::SimdFloatAdd                0      0.00%     20.90% # attempts to use FU when none available
system.cpu1.iq.fu_full::SimdFloatAlu                0      0.00%     20.90% # attempts to use FU when none available
system.cpu1.iq.fu_full::SimdFloatCmp                0      0.00%     20.90% # attempts to use FU when none available
system.cpu1.iq.fu_full::SimdFloatCvt                0      0.00%     20.90% # attempts to use FU when none available
system.cpu1.iq.fu_full::SimdFloatDiv                0      0.00%     20.90% # attempts to use FU when none available
system.cpu1.iq.fu_full::SimdFloatMisc               0      0.00%     20.90% # attempts to use FU when none available
system.cpu1.iq.fu_full::SimdFloatMult               0      0.00%     20.90% # attempts to use FU when none available
system.cpu1.iq.fu_full::SimdFloatMultAcc            0      0.00%     20.90% # attempts to use FU when none available
system.cpu1.iq.fu_full::SimdFloatSqrt               0      0.00%     20.90% # attempts to use FU when none available
system.cpu1.iq.fu_full::SimdReduceAdd               0      0.00%     20.90% # attempts to use FU when none available
system.cpu1.iq.fu_full::SimdReduceAlu               0      0.00%     20.90% # attempts to use FU when none available
system.cpu1.iq.fu_full::SimdReduceCmp               0      0.00%     20.90% # attempts to use FU when none available
system.cpu1.iq.fu_full::SimdFloatReduceAdd            0      0.00%     20.90% # attempts to use FU when none available
system.cpu1.iq.fu_full::SimdFloatReduceCmp            0      0.00%     20.90% # attempts to use FU when none available
system.cpu1.iq.fu_full::SimdAes                     0      0.00%     20.90% # attempts to use FU when none available
system.cpu1.iq.fu_full::SimdAesMix                  0      0.00%     20.90% # attempts to use FU when none available
system.cpu1.iq.fu_full::SimdSha1Hash                0      0.00%     20.90% # attempts to use FU when none available
system.cpu1.iq.fu_full::SimdSha1Hash2               0      0.00%     20.90% # attempts to use FU when none available
system.cpu1.iq.fu_full::SimdSha256Hash              0      0.00%     20.90% # attempts to use FU when none available
system.cpu1.iq.fu_full::SimdSha256Hash2             0      0.00%     20.90% # attempts to use FU when none available
system.cpu1.iq.fu_full::SimdShaSigma2               0      0.00%     20.90% # attempts to use FU when none available
system.cpu1.iq.fu_full::SimdShaSigma3               0      0.00%     20.90% # attempts to use FU when none available
system.cpu1.iq.fu_full::SimdPredAlu                 0      0.00%     20.90% # attempts to use FU when none available
system.cpu1.iq.fu_full::MemRead                420771     69.86%     90.76% # attempts to use FU when none available
[...]
system.cpu1.dcache.WriteReq_avg_mshr_miss_latency::.cpu1.data 82004.729638                       # average WriteReq mshr miss latency
system.cpu1.dcache.WriteReq_avg_mshr_miss_latency::total 82004.729638                       # average WriteReq mshr miss latency
system.cpu1.dcache.LoadLockedReq_hits::.cpu1.data          683                       # number of LoadLockedReq hits
system.cpu1.dcache.LoadLockedReq_hits::total          683                       # number of LoadLockedReq hits
system.cpu1.dcache.LoadLockedReq_misses::.cpu1.data          248                       # number of LoadLockedReq misses
system.cpu1.dcache.LoadLockedReq_misses::total          248                       # number of LoadLockedReq misses
system.cpu1.dcache.LoadLockedReq_miss_latency::.cpu1.data     10049000                       # number of LoadLockedReq miss cycles
system.cpu1.dcache.LoadLockedReq_miss_latency::total     10049000                       # number of LoadLockedReq miss cycles
system.cpu1.dcache.LoadLockedReq_accesses::.cpu1.data          931                       # number of LoadLockedReq accesses(hits+misses)
system.cpu1.dcache.LoadLockedReq_accesses::total          931                       # number of LoadLockedReq accesses(hits+misses)
system.cpu1.dcache.LoadLockedReq_miss_rate::.cpu1.data     0.266380                       # miss rate for LoadLockedReq accesses
system.cpu1.dcache.LoadLockedReq_miss_rate::total     0.266380                       # miss rate for LoadLockedReq accesses
system.cpu1.dcache.LoadLockedReq_avg_miss_latency::.cpu1.data 40520.161290                       # average LoadLockedReq miss latency
system.cpu1.dcache.LoadLockedReq_avg_miss_latency::total 40520.161290                       # average LoadLockedReq miss latency
system.cpu1.dcache.LoadLockedReq_mshr_hits::.cpu1.data          122                       # number of LoadLockedReq MSHR hits
system.cpu1.dcache.LoadLockedReq_mshr_hits::total          122                       # number of LoadLockedReq MSHR hits
system.cpu1.dcache.LoadLockedReq_mshr_misses::.cpu1.data          126                       # number of LoadLockedReq MSHR misses
system.cpu1.dcache.LoadLockedReq_mshr_misses::total          126                       # number of LoadLockedReq MSHR misses
system.cpu1.dcache.LoadLockedReq_mshr_miss_latency::.cpu1.data      1260500                       # number of LoadLockedReq MSHR miss cycles
system.cpu1.dcache.LoadLockedReq_mshr_miss_latency::total      1260500                       # number of LoadLockedReq MSHR miss cycles
system.cpu1.dcache.LoadLockedReq_mshr_miss_rate::.cpu1.data     0.135338                       # mshr miss rate for LoadLockedReq accesses
system.cpu1.dcache.LoadLockedReq_mshr_miss_rate::total     0.135338                       # mshr miss rate for LoadLockedReq accesses
system.cpu1.dcache.LoadLockedReq_avg_mshr_miss_latency::.cpu1.data 10003.968254                       # average LoadLockedReq mshr miss latency
system.cpu1.dcache.LoadLockedReq_avg_mshr_miss_latency::total 10003.968254                       # average LoadLockedReq mshr miss latency
system.cpu1.dcache.StoreCondReq_hits::.cpu1.data          380                       # number of StoreCondReq hits
system.cpu1.dcache.StoreCondReq_hits::total          380                       # number of StoreCondReq hits
system.cpu1.dcache.StoreCondReq_misses::.cpu1.data          305                       # number of StoreCondReq misses
system.cpu1.dcache.StoreCondReq_misses::total          305                       # number of StoreCondReq misses
system.cpu1.dcache.StoreCondReq_miss_latency::.cpu1.data      1712000                       # number of StoreCondReq miss cycles
system.cpu1.dcache.StoreCondReq_miss_latency::total      1712000                       # number of StoreCondReq miss cycles
system.cpu1.dcache.StoreCondReq_accesses::.cpu1.data          685                       # number of StoreCondReq accesses(hits+misses)
system.cpu1.dcache.StoreCondReq_accesses::total          685                       # number of StoreCondReq accesses(hits+misses)
system.cpu1.dcache.StoreCondReq_miss_rate::.cpu1.data     0.445255                       # miss rate for StoreCondReq accesses
system.cpu1.dcache.StoreCondReq_miss_rate::total     0.445255                       # miss rate for StoreCondReq accesses
system.cpu1.dcache.StoreCondReq_avg_miss_latency::.cpu1.data  5613.114754                       # average StoreCondReq miss latency
system.cpu1.dcache.StoreCondReq_avg_miss_latency::total  5613.114754                       # average StoreCondReq miss latency
system.cpu1.dcache.StoreCondReq_mshr_misses::.cpu1.data          305                       # number of StoreCondReq MSHR misses
system.cpu1.dcache.StoreCondReq_mshr_misses::total          305                       # number of StoreCondReq MSHR misses
system.cpu1.dcache.StoreCondReq_mshr_miss_latency::.cpu1.data      1455000                       # number of StoreCondReq MSHR miss cycles
system.cpu1.dcache.StoreCondReq_mshr_miss_latency::total      1455000                       # number of StoreCondReq MSHR miss cycles
system.cpu1.dcache.StoreCondReq_mshr_miss_rate::.cpu1.data     0.445255                       # mshr miss rate for StoreCondReq accesses
system.cpu1.dcache.StoreCondReq_mshr_miss_rate::total     0.445255                       # mshr miss rate for StoreCondReq accesses
system.cpu1.dcache.StoreCondReq_avg_mshr_miss_latency::.cpu1.data  4770.491803                       # average StoreCondReq mshr miss latency
system.cpu1.dcache.StoreCondReq_avg_mshr_miss_latency::total  4770.491803                       # average StoreCondReq mshr miss latency
system.cpu1.dcache.StoreCondFailReq_miss_latency::.cpu1.data       808500                       # number of StoreCondFailReq miss cycles
system.cpu1.dcache.StoreCondFailReq_miss_latency::total       808500                       # number of StoreCondFailReq miss cycles
system.cpu1.dcache.StoreCondFailReq_avg_miss_latency::.cpu1.data          inf                       # average StoreCondFailReq miss latency
system.cpu1.dcache.StoreCondFailReq_avg_miss_latency::total          inf                       # average StoreCondFailReq miss latency
system.cpu1.dcache.StoreCondFailReq_mshr_miss_latency::.cpu1.data       760500                       # number of StoreCondFailReq MSHR miss cycles
system.cpu1.dcache.StoreCondFailReq_mshr_miss_latency::total       760500                       # number of StoreCondFailReq MSHR miss cycles
system.cpu1.dcache.StoreCondFailReq_avg_mshr_miss_latency::.cpu1.data          inf                       # average StoreCondFailReq mshr miss latency
system.cpu1.dcache.StoreCondFailReq_avg_mshr_miss_latency::total          inf                       # average StoreCondFailReq mshr miss latency
system.cpu1.dcache.SwapReq_hits::.cpu1.data          178                       # number of SwapReq hits
system.cpu1.dcache.SwapReq_hits::total            178                       # number of SwapReq hits
system.cpu1.dcache.SwapReq_misses::.cpu1.data          420                       # number of SwapReq misses
system.cpu1.dcache.SwapReq_misses::total          420                       # number of SwapReq misses
system.cpu1.dcache.SwapReq_miss_latency::.cpu1.data      1964500                       # number of SwapReq miss cycles
system.cpu1.dcache.SwapReq_miss_latency::total      1964500                       # number of SwapReq miss cycles
system.cpu1.dcache.SwapReq_accesses::.cpu1.data          598                       # number of SwapReq accesses(hits+misses)
system.cpu1.dcache.SwapReq_accesses::total          598                       # number of SwapReq accesses(hits+misses)
system.cpu1.dcache.SwapReq_miss_rate::.cpu1.data     0.702341                       # miss rate for SwapReq accesses
system.cpu1.dcache.SwapReq_miss_rate::total     0.702341                       # miss rate for SwapReq accesses
system.cpu1.dcache.SwapReq_avg_miss_latency::.cpu1.data  4677.380952                       # average SwapReq miss latency
system.cpu1.dcache.SwapReq_avg_miss_latency::total  4677.380952                       # average SwapReq miss latency
system.cpu1.dcache.SwapReq_mshr_hits::.cpu1.data            2                       # number of SwapReq MSHR hits
system.cpu1.dcache.SwapReq_mshr_hits::total            2                       # number of SwapReq MSHR hits
system.cpu1.dcache.SwapReq_mshr_misses::.cpu1.data          418                       # number of SwapReq MSHR misses
system.cpu1.dcache.SwapReq_mshr_misses::total          418                       # number of SwapReq MSHR misses
system.cpu1.dcache.SwapReq_mshr_miss_latency::.cpu1.data      1544500                       # number of SwapReq MSHR miss cycles
system.cpu1.dcache.SwapReq_mshr_miss_latency::total      1544500                       # number of SwapReq MSHR miss cycles
system.cpu1.dcache.SwapReq_mshr_miss_rate::.cpu1.data     0.698997                       # mshr miss rate for SwapReq accesses
system.cpu1.dcache.SwapReq_mshr_miss_rate::total     0.698997                       # mshr miss rate for SwapReq accesses
system.cpu1.dcache.SwapReq_avg_mshr_miss_latency::.cpu1.data  3694.976077                       # average SwapReq mshr miss latency
system.cpu1.dcache.SwapReq_avg_mshr_miss_latency::total  3694.976077                       # average SwapReq mshr miss latency
system.cpu1.dcache.tags.pwrStateResidencyTicks::UNDEFINED 291374235000                       # Cumulative time (in ticks) in various power states
system.cpu1.dcache.tags.tagsinuse           29.144960                       # Cycle average of tags in use
system.cpu1.dcache.tags.total_refs           12809942                       # Total number of references to valid blocks.
system.cpu1.dcache.tags.sampled_refs          1664592                       # Sample count of references to valid blocks.
system.cpu1.dcache.tags.avg_refs             7.695545                       # Average number of references to valid blocks.
system.cpu1.dcache.tags.warmup_cycle                0                       # Cycle when the warmup percentage was hit.
system.cpu1.dcache.tags.occ_blocks::.cpu1.data    29.144960                       # Average occupied blocks per requestor
system.cpu1.dcache.tags.occ_percent::.cpu1.data     0.910780                       # Average percentage of cache occupancy
system.cpu1.dcache.tags.occ_percent::total     0.910780                       # Average percentage of cache occupancy
system.cpu1.dcache.tags.occ_task_id_blocks::1024           28                       # Occupied blocks per task id
system.cpu1.dcache.tags.age_task_id_blocks_1024::1           28                       # Occupied blocks per task id
system.cpu1.dcache.tags.occ_task_id_percent::1024     0.875000                       # Percentage of cache occupancy per task id
system.cpu1.dcache.tags.tag_accesses         31106866                       # Number of tag accesses
system.cpu1.dcache.tags.data_accesses        31106866                       # Number of data accesses
system.cpu_clk_domain.clock                       500                       # Clock period in ticks
system.tol2bus.pwrStateResidencyTicks::UNDEFINED 291374235000                       # Cumulative time (in ticks) in various power states
system.tol2bus.trans_dist::ReadResp          13786650                       # Transaction distribution
system.tol2bus.trans_dist::ReadRespWithInvalidate            3                       # Transaction distribution
system.tol2bus.trans_dist::WritebackDirty      1128539                       # Transaction distribution
system.tol2bus.trans_dist::WritebackClean     13250347                       # Transaction distribution
system.tol2bus.trans_dist::CleanEvict        29903504                       # Transaction distribution
system.tol2bus.trans_dist::HardPFReq         17680239                       # Transaction distribution
system.tol2bus.trans_dist::HardPFResp               1                       # Transaction distribution
system.tol2bus.trans_dist::UpgradeReq           19102                       # Transaction distribution
system.tol2bus.trans_dist::SCUpgradeReq          1271                       # Transaction distribution
system.tol2bus.trans_dist::UpgradeResp          20373                       # Transaction distribution
system.tol2bus.trans_dist::SCUpgradeFailReq          133                       # Transaction distribution
system.tol2bus.trans_dist::UpgradeFailResp          133                       # Transaction distribution
system.tol2bus.trans_dist::ReadExReq            85378                       # Transaction distribution
system.tol2bus.trans_dist::ReadExResp           85378                       # Transaction distribution
system.tol2bus.trans_dist::ReadCleanReq         23982                       # Transaction distribution
system.tol2bus.trans_dist::ReadSharedReq     13762672                       # Transaction distribution
system.tol2bus.pkt_count_system.cpu0.icache.mem_side::system.l2.cpu_side        45838                       # Packet count per connected master and slave (bytes)
system.tol2bus.pkt_count_system.cpu0.dcache.mem_side::system.l2.cpu_side     33048696                       # Packet count per connected master and slave (bytes)
system.tol2bus.pkt_count_system.cpu1.icache.mem_side::system.l2.cpu_side         8739                       # Packet count per connected master and slave (bytes)
system.tol2bus.pkt_count_system.cpu1.dcache.mem_side::system.l2.cpu_side      5013018                       # Packet count per connected master and slave (bytes)
system.tol2bus.pkt_count_system.cpu2.icache.mem_side::system.l2.cpu_side         8730                       # Packet count per connected master and slave (bytes)
system.tol2bus.pkt_count_system.cpu2.dcache.mem_side::system.l2.cpu_side      1872003                       # Packet count per connected master and slave (bytes)
system.tol2bus.pkt_count_system.cpu3.icache.mem_side::system.l2.cpu_side         8637                       # Packet count per connected master and slave (bytes)
system.tol2bus.pkt_count_system.cpu3.dcache.mem_side::system.l2.cpu_side      1601851                       # Packet count per connected master and slave (bytes)
system.tol2bus.pkt_count::total              41607512                       # Packet count per connected master and slave (bytes)
system.tol2bus.pkt_size_system.cpu0.icache.mem_side::system.l2.cpu_side      1955712                       # Cumulative packet size per connected master and slave (bytes)
system.tol2bus.pkt_size_system.cpu0.dcache.mem_side::system.l2.cpu_side   1409693184                       # Cumulative packet size per connected master and slave (bytes)
system.tol2bus.pkt_size_system.cpu1.icache.mem_side::system.l2.cpu_side       372864                       # Cumulative packet size per connected master and slave (bytes)
system.tol2bus.pkt_size_system.cpu1.dcache.mem_side::system.l2.cpu_side    212572800                       # Cumulative packet size per connected master and slave (bytes)
system.tol2bus.pkt_size_system.cpu2.icache.mem_side::system.l2.cpu_side       372480                       # Cumulative packet size per connected master and slave (bytes)
system.tol2bus.pkt_size_system.cpu2.dcache.mem_side::system.l2.cpu_side     79623040                       # Cumulative packet size per connected master and slave (bytes)
system.tol2bus.pkt_size_system.cpu3.icache.mem_side::system.l2.cpu_side       368512                       # Cumulative packet size per connected master and slave (bytes)
system.tol2bus.pkt_size_system.cpu3.dcache.mem_side::system.l2.cpu_side     67761856                       # Cumulative packet size per connected master and slave (bytes)
system.tol2bus.pkt_size::total             1772720448                       # Cumulative packet size per connected master and slave (bytes)
system.tol2bus.snoops                        48140194                       # Total snoops (count)
system.tol2bus.snoopTraffic                  35346880                       # Total snoop traffic (bytes)
system.tol2bus.snoop_fanout::samples         62016820                       # Request fanout histogram
system.tol2bus.snoop_fanout::mean            0.201159                       # Request fanout histogram
system.tol2bus.snoop_fanout::stdev           0.470337                       # Request fanout histogram
system.tol2bus.snoop_fanout::underflows             0      0.00%      0.00% # Request fanout histogram
system.tol2bus.snoop_fanout::0               50868608     82.02%     82.02% # Request fanout histogram
system.tol2bus.snoop_fanout::1               10267317     16.56%     98.58% # Request fanout histogram
system.tol2bus.snoop_fanout::2                 538343      0.87%     99.45% # Request fanout histogram
system.tol2bus.snoop_fanout::3                 239054      0.39%     99.83% # Request fanout histogram
system.tol2bus.snoop_fanout::4                 103443      0.17%    100.00% # Request fanout histogram
system.tol2bus.snoop_fanout::5                     55      0.00%    100.00% # Request fanout histogram
system.tol2bus.snoop_fanout::6                      0      0.00%    100.00% # Request fanout histogram
system.tol2bus.snoop_fanout::7                      0      0.00%    100.00% # Request fanout histogram
system.tol2bus.snoop_fanout::8                      0      0.00%    100.00% # Request fanout histogram
system.tol2bus.snoop_fanout::overflows              0      0.00%    100.00% # Request fanout histogram
system.tol2bus.snoop_fanout::min_value              0                       # Request fanout histogram
system.tol2bus.snoop_fanout::max_value              5                       # Request fanout histogram
system.tol2bus.snoop_fanout::total           62016820                       # Request fanout histogram
system.tol2bus.reqLayer0.occupancy        27747197118                       # Layer occupancy (ticks)
system.tol2bus.reqLayer0.utilization              9.5                       # Layer utilization (%)
system.tol2bus.respLayer5.occupancy         941165102                       # Layer occupancy (ticks)
system.tol2bus.respLayer5.utilization             0.3                       # Layer utilization (%)
system.tol2bus.respLayer4.occupancy           4587988                       # Layer occupancy (ticks)
system.tol2bus.respLayer4.utilization             0.0                       # Layer utilization (%)
system.tol2bus.respLayer7.occupancy         815964717                       # Layer occupancy (ticks)
system.tol2bus.respLayer7.utilization             0.3                       # Layer utilization (%)
system.tol2bus.respLayer6.occupancy           4497012                       # Layer occupancy (ticks)
system.tol2bus.respLayer6.utilization             0.0                       # Layer utilization (%)
system.tol2bus.respLayer1.occupancy       16532167949                       # Layer occupancy (ticks)
system.tol2bus.respLayer1.utilization             5.7                       # Layer utilization (%)
system.tol2bus.respLayer0.occupancy          22945932                       # Layer occupancy (ticks)
system.tol2bus.respLayer0.utilization             0.0                       # Layer utilization (%)
system.tol2bus.respLayer3.occupancy        2510479720                       # Layer occupancy (ticks)
system.tol2bus.respLayer3.utilization             0.9                       # Layer utilization (%)
system.tol2bus.respLayer2.occupancy           4565006                       # Layer occupancy (ticks)
system.tol2bus.respLayer2.utilization             0.0                       # Layer utilization (%)
system.tol2bus.snoopLayer0.occupancy             1500                       # Layer occupancy (ticks)
system.tol2bus.snoopLayer0.utilization            0.0                       # Layer utilization (%)

---------- End Simulation Statistics   ----------
