
---------- Begin Simulation Statistics ----------
final_tick                               1263324090000                       # Number of ticks from beginning of simulation (restored from checkpoints and never reset)
host_inst_rate                                  61152                       # Simulator instruction rate (inst/s)
host_mem_usage                                 703060                       # Number of bytes of host memory used
host_op_rate                                    61331                       # Simulator op (including micro ops) rate (op/s)
host_seconds                                 23493.44                       # Real time elapsed on the host
host_tick_rate                               53773473                       # Simulator tick rate (ticks/s)
sim_freq                                 1000000000000                       # Frequency of simulated ticks
sim_insts                                  1436665933                       # Number of instructions simulated
sim_ops                                    1440869686                       # Number of ops (including micro ops) simulated
sim_seconds                                  1.263324                       # Number of seconds simulated
sim_ticks                                1263324090000                       # Number of ticks simulated
system.cpu0.branchPred.BTBCorrect                   0                       # Number of correct BTB predictions (this stat may not work properly.
system.cpu0.branchPred.BTBHitPct            89.025207                       # BTB Hit Percentage
system.cpu0.branchPred.BTBHits              189671940                       # Number of BTB hits
system.cpu0.branchPred.BTBLookups           213054196                       # Number of BTB lookups
system.cpu0.branchPred.RASInCorrect                 0                       # Number of incorrect RAS predictions.
system.cpu0.branchPred.condIncorrect         27177819                       # Number of conditional branches incorrect
system.cpu0.branchPred.condPredicted        276161153                       # Number of conditional branches predicted
system.cpu0.branchPred.indirectHits          21086080                       # Number of indirect target hits.
system.cpu0.branchPred.indirectLookups       22410907                       # Number of indirect predictor lookups.
system.cpu0.branchPred.indirectMisses         1324827                       # Number of indirect misses.
system.cpu0.branchPred.lookups              353713359                       # Number of BP lookups
system.cpu0.branchPred.usedRAS                      0                       # Number of times the RAS was used to get a target.
system.cpu0.branchPredindirectMispredicted      2187929                       # Number of mispredicted indirect branches.
system.cpu0.commit.amos                       2100290                       # Number of atomic instructions committed
system.cpu0.commit.branchMispredicts         14023707                       # The number of times a branch was mispredicted
system.cpu0.commit.branches                 329547998                       # Number of branches committed
system.cpu0.commit.bw_lim_events             37569992                       # number cycles where commit BW limit reached
system.cpu0.commit.commitNonSpecStalls        6309773                       # The number of times commit has been forced to stall to communicate backwards
system.cpu0.commit.commitSquashedInsts       74589047                       # The number of squashed insts skipped by commit
system.cpu0.commit.committedInsts          1316561824                       # Number of instructions committed
system.cpu0.commit.committedOps            1318665406                       # Number of ops (including micro ops) committed
system.cpu0.commit.committed_per_cycle::samples   2325847141                       # Number of insts commited each cycle
system.cpu0.commit.committed_per_cycle::mean     0.566961                       # Number of insts commited each cycle
system.cpu0.commit.committed_per_cycle::stdev     1.318132                       # Number of insts commited each cycle
system.cpu0.commit.committed_per_cycle::underflows            0      0.00%      0.00% # Number of insts commited each cycle
system.cpu0.commit.committed_per_cycle::0   1679045368     72.19%     72.19% # Number of insts commited each cycle
system.cpu0.commit.committed_per_cycle::1    380609118     16.36%     88.56% # Number of insts commited each cycle
system.cpu0.commit.committed_per_cycle::2    110382963      4.75%     93.30% # Number of insts commited each cycle
system.cpu0.commit.committed_per_cycle::3     79598161      3.42%     96.72% # Number of insts commited each cycle
system.cpu0.commit.committed_per_cycle::4     22875130      0.98%     97.71% # Number of insts commited each cycle
system.cpu0.commit.committed_per_cycle::5      9123602      0.39%     98.10% # Number of insts commited each cycle
system.cpu0.commit.committed_per_cycle::6      5682236      0.24%     98.34% # Number of insts commited each cycle
system.cpu0.commit.committed_per_cycle::7       960571      0.04%     98.38% # Number of insts commited each cycle
system.cpu0.commit.committed_per_cycle::8     37569992      1.62%    100.00% # Number of insts commited each cycle
system.cpu0.commit.committed_per_cycle::overflows            0      0.00%    100.00% # Number of insts commited each cycle
system.cpu0.commit.committed_per_cycle::min_value            0                       # Number of insts commited each cycle
system.cpu0.commit.committed_per_cycle::max_value            8                       # Number of insts commited each cycle
system.cpu0.commit.committed_per_cycle::total   2325847141                       # Number of insts commited each cycle
system.cpu0.commit.fp_insts                        46                       # Number of committed floating point instructions.
system.cpu0.commit.function_calls            25143799                       # Number of function calls committed.
system.cpu0.commit.int_insts               1273933299                       # Number of committed integer instructions.
system.cpu0.commit.loads                    405172766                       # Number of loads committed
system.cpu0.commit.membars                    4203747                       # Number of memory barriers committed
system.cpu0.commit.op_class_0::No_OpClass      4203753      0.32%      0.32% # Class of committed instruction
system.cpu0.commit.op_class_0::IntAlu       742071211     56.27%     56.59% # Class of committed instruction
system.cpu0.commit.op_class_0::IntMult       11831786      0.90%     57.49% # Class of committed instruction
system.cpu0.commit.op_class_0::IntDiv         2099835      0.16%     57.65% # Class of committed instruction
system.cpu0.commit.op_class_0::FloatAdd             0      0.00%     57.65% # Class of committed instruction
system.cpu0.commit.op_class_0::FloatCmp             4      0.00%     57.65% # Class of committed instruction
system.cpu0.commit.op_class_0::FloatCvt            12      0.00%     57.65% # Class of committed instruction
system.cpu0.commit.op_class_0::FloatMult            0      0.00%     57.65% # Class of committed instruction
system.cpu0.commit.op_class_0::FloatMultAcc            0      0.00%     57.65% # Class of committed instruction
system.cpu0.commit.op_class_0::FloatDiv             2      0.00%     57.65% # Class of committed instruction
system.cpu0.commit.op_class_0::FloatMisc            4      0.00%     57.65% # Class of committed instruction
system.cpu0.commit.op_class_0::FloatSqrt            0      0.00%     57.65% # Class of committed instruction
system.cpu0.commit.op_class_0::SimdAdd              0      0.00%     57.65% # Class of committed instruction
system.cpu0.commit.op_class_0::SimdAddAcc            0      0.00%     57.65% # Class of committed instruction
system.cpu0.commit.op_class_0::SimdAlu              0      0.00%     57.65% # Class of committed instruction
system.cpu0.commit.op_class_0::SimdCmp              0      0.00%     57.65% # Class of committed instruction
system.cpu0.commit.op_class_0::SimdCvt              0      0.00%     57.65% # Class of committed instruction
system.cpu0.commit.op_class_0::SimdMisc             0      0.00%     57.65% # Class of committed instruction
system.cpu0.commit.op_class_0::SimdMult             0      0.00%     57.65% # Class of committed instruction
system.cpu0.commit.op_class_0::SimdMultAcc            0      0.00%     57.65% # Class of committed instruction
system.cpu0.commit.op_class_0::SimdShift            0      0.00%     57.65% # Class of committed instruction
system.cpu0.commit.op_class_0::SimdShiftAcc            0      0.00%     57.65% # Class of committed instruction
system.cpu0.commit.op_class_0::SimdDiv              0      0.00%     57.65% # Class of committed instruction
system.cpu0.commit.op_class_0::SimdSqrt             0      0.00%     57.65% # Class of committed instruction
system.cpu0.commit.op_class_0::SimdFloatAdd            0      0.00%     57.65% # Class of committed instruction
system.cpu0.commit.op_class_0::SimdFloatAlu            0      0.00%     57.65% # Class of committed instruction
system.cpu0.commit.op_class_0::SimdFloatCmp            0      0.00%     57.65% # Class of committed instruction
system.cpu0.commit.op_class_0::SimdFloatCvt            0      0.00%     57.65% # Class of committed instruction
system.cpu0.commit.op_class_0::SimdFloatDiv            0      0.00%     57.65% # Class of committed instruction
system.cpu0.commit.op_class_0::SimdFloatMisc            0      0.00%     57.65% # Class of committed instruction
system.cpu0.commit.op_class_0::SimdFloatMult            0      0.00%     57.65% # Class of committed instruction
system.cpu0.commit.op_class_0::SimdFloatMultAcc            0      0.00%     57.65% # Class of committed instruction
system.cpu0.commit.op_class_0::SimdFloatSqrt            0      0.00%     57.65% # Class of committed instruction
system.cpu0.commit.op_class_0::SimdReduceAdd            0      0.00%     57.65% # Class of committed instruction
system.cpu0.commit.op_class_0::SimdReduceAlu            0      0.00%     57.65% # Class of committed instruction
system.cpu0.commit.op_class_0::SimdReduceCmp            0      0.00%     57.65% # Class of committed instruction
system.cpu0.commit.op_class_0::SimdFloatReduceAdd            0      0.00%     57.65% # Class of committed instruction
system.cpu0.commit.op_class_0::SimdFloatReduceCmp            0      0.00%     57.65% # Class of committed instruction
system.cpu0.commit.op_class_0::SimdAes              0      0.00%     57.65% # Class of committed instruction
system.cpu0.commit.op_class_0::SimdAesMix            0      0.00%     57.65% # Class of committed instruction
system.cpu0.commit.op_class_0::SimdSha1Hash            0      0.00%     57.65% # Class of committed instruction
system.cpu0.commit.op_class_0::SimdSha1Hash2            0      0.00%     57.65% # Class of committed instruction
system.cpu0.commit.op_class_0::SimdSha256Hash            0      0.00%     57.65% # Class of committed instruction
system.cpu0.commit.op_class_0::SimdSha256Hash2            0      0.00%     57.65% # Class of committed instruction
system.cpu0.commit.op_class_0::SimdShaSigma2            0      0.00%     57.65% # Class of committed instruction
system.cpu0.commit.op_class_0::SimdShaSigma3            0      0.00%     57.65% # Class of committed instruction
system.cpu0.commit.op_class_0::SimdPredAlu            0      0.00%     57.65% # Class of committed instruction
system.cpu0.commit.op_class_0::MemRead      407273048     30.89%     88.53% # Class of committed instruction
system.cpu0.commit.op_class_0::MemWrite     151185727     11.47%    100.00% # Class of committed instruction
system.cpu0.commit.op_class_0::FloatMemRead            8      0.00%    100.00% # Class of committed instruction
system.cpu0.commit.op_class_0::FloatMemWrite           16      0.00%    100.00% # Class of committed instruction
system.cpu0.commit.op_class_0::IprAccess            0      0.00%    100.00% # Class of committed instruction
system.cpu0.commit.op_class_0::InstPrefetch            0      0.00%    100.00% # Class of committed instruction
system.cpu0.commit.op_class_0::total       1318665406                       # Class of committed instruction
system.cpu0.commit.refs                     558458799                       # Number of memory references committed
system.cpu0.commit.swp_count                        0                       # Number of s/w prefetches committed
system.cpu0.commit.vec_insts                        0                       # Number of committed Vector instructions.
system.cpu0.committedInsts                 1316561824                       # Number of Instructions Simulated
system.cpu0.committedOps                   1318665406                       # Number of Ops (including micro ops) Simulated
system.cpu0.cpi                              1.915428                       # CPI: Cycles Per Instruction
system.cpu0.cpi_total                        1.915428                       # CPI: Total CPI of All Threads
system.cpu0.decode.BlockedCycles            415161395                       # Number of cycles decode is blocked
system.cpu0.decode.BranchMispred             13157279                       # Number of times decode detected a branch misprediction
system.cpu0.decode.BranchResolved           185231919                       # Number of times decode resolved a branch
system.cpu0.decode.DecodedInsts            1428536427                       # Number of instructions handled by decode
system.cpu0.decode.IdleCycles               923065415                       # Number of cycles decode is idle
system.cpu0.decode.RunCycles                988906783                       # Number of cycles decode is running
system.cpu0.decode.SquashCycles              14032320                       # Number of cycles decode is squashing
system.cpu0.decode.SquashedInsts             14471939                       # Number of squashed instructions handled by decode
system.cpu0.decode.UnblockCycles              6494191                       # Number of cycles decode is unblocking
system.cpu0.dtb.accesses                            0                       # DTB accesses
system.cpu0.dtb.hits                                0                       # DTB hits
system.cpu0.dtb.misses                              0                       # DTB misses
system.cpu0.dtb.read_accesses                       0                       # DTB read accesses
system.cpu0.dtb.read_hits                           0                       # DTB read hits
system.cpu0.dtb.read_misses                         0                       # DTB read misses
system.cpu0.dtb.write_accesses                      0                       # DTB write accesses
system.cpu0.dtb.write_hits                          0                       # DTB write hits
system.cpu0.dtb.write_misses                        0                       # DTB write misses
system.cpu0.fetch.Branches                  353713359                       # Number of branches that fetch encountered
system.cpu0.fetch.CacheLines                242899666                       # Number of cache lines fetched
system.cpu0.fetch.Cycles                   1413924055                       # Number of cycles fetch has run and was not squashing or blocked
system.cpu0.fetch.IcacheSquashes              6459633                       # Number of outstanding Icache misses that were squashed
system.cpu0.fetch.IcacheWaitRetryStallCycles          106                       # Number of stall cycles due to full MSHR
system.cpu0.fetch.Insts                    1457499520                       # Number of instructions fetch has processed
system.cpu0.fetch.MiscStallCycles                  18                       # Number of cycles fetch has spent waiting on interrupts, or bad addresses, or out of MSHRs
system.cpu0.fetch.PendingTrapStallCycles           48                       # Number of stall cycles due to pending traps
system.cpu0.fetch.SquashCycles               54372880                       # Number of cycles fetch has spent squashing
system.cpu0.fetch.branchRate                 0.140263                       # Number of branch fetches per cycle
system.cpu0.fetch.icacheStallCycles         906549437                       # Number of cycles fetch is stalled on an Icache miss
system.cpu0.fetch.predictedBranches         210758020                       # Number of branches that fetch has predicted taken
system.cpu0.fetch.rate                       0.577965                       # Number of inst fetches per cycle
system.cpu0.fetch.rateDist::samples        2347660104                       # Number of instructions fetched each cycle (Total)
system.cpu0.fetch.rateDist::mean             0.621727                       # Number of instructions fetched each cycle (Total)
system.cpu0.fetch.rateDist::stdev            0.901345                       # Number of instructions fetched each cycle (Total)
system.cpu0.fetch.rateDist::underflows              0      0.00%      0.00% # Number of instructions fetched each cycle (Total)
system.cpu0.fetch.rateDist::0              1314407846     55.99%     55.99% # Number of instructions fetched each cycle (Total)
system.cpu0.fetch.rateDist::1               773834880     32.96%     88.95% # Number of instructions fetched each cycle (Total)
system.cpu0.fetch.rateDist::2               136558670      5.82%     94.77% # Number of instructions fetched each cycle (Total)
system.cpu0.fetch.rateDist::3                99542249      4.24%     99.01% # Number of instructions fetched each cycle (Total)
system.cpu0.fetch.rateDist::4                13613680      0.58%     99.59% # Number of instructions fetched each cycle (Total)
system.cpu0.fetch.rateDist::5                 4951736      0.21%     99.80% # Number of instructions fetched each cycle (Total)
system.cpu0.fetch.rateDist::6                  547983      0.02%     99.82% # Number of instructions fetched each cycle (Total)
system.cpu0.fetch.rateDist::7                 2101245      0.09%     99.91% # Number of instructions fetched each cycle (Total)
system.cpu0.fetch.rateDist::8                 2101815      0.09%    100.00% # Number of instructions fetched each cycle (Total)
system.cpu0.fetch.rateDist::overflows               0      0.00%    100.00% # Number of instructions fetched each cycle (Total)
system.cpu0.fetch.rateDist::min_value               0                       # Number of instructions fetched each cycle (Total)
system.cpu0.fetch.rateDist::max_value               8                       # Number of instructions fetched each cycle (Total)
system.cpu0.fetch.rateDist::total          2347660104                       # Number of instructions fetched each cycle (Total)
system.cpu0.fp_regfile_reads                       40                       # number of floating regfile reads
system.cpu0.fp_regfile_writes                      23                       # number of floating regfile writes
system.cpu0.idleCycles                      174119757                       # Total number of cycles that the CPU has spent unscheduled due to idling
system.cpu0.iew.branchMispredicts            14110731                       # Number of branch mispredicts detected at execute
system.cpu0.iew.exec_branches               335202470                       # Number of branches executed
system.cpu0.iew.exec_nop                            0                       # number of nop insts executed
system.cpu0.iew.exec_rate                    0.547179                       # Inst execution rate
system.cpu0.iew.exec_refs                   602005346                       # number of memory reference insts executed
system.cpu0.iew.exec_stores                 155058420                       # Number of stores executed
system.cpu0.iew.exec_swp                            0                       # number of swp insts executed
system.cpu0.iew.iewBlockCycles              341839182                       # Number of cycles IEW is blocking
system.cpu0.iew.iewDispLoadInsts            445799414                       # Number of dispatched load instructions
system.cpu0.iew.iewDispNonSpecInsts           2106585                       # Number of dispatched non-speculative instructions
system.cpu0.iew.iewDispSquashedInsts          8508616                       # Number of squashed instructions skipped by dispatch
system.cpu0.iew.iewDispStoreInsts           156483860                       # Number of dispatched store instructions
system.cpu0.iew.iewDispatchedInsts         1393203715                       # Number of instructions dispatched to IQ
system.cpu0.iew.iewExecLoadInsts            446946926                       # Number of load instructions executed
system.cpu0.iew.iewExecSquashedInsts         10443152                       # Number of squashed instructions skipped in execute
system.cpu0.iew.iewExecutedInsts           1379865694                       # Number of executed instructions
system.cpu0.iew.iewIQFullEvents               1772447                       # Number of times the IQ has become full, causing a stall
system.cpu0.iew.iewIdleCycles                       0                       # Number of cycles IEW is idle
system.cpu0.iew.iewLSQFullEvents             10653123                       # Number of times the LSQ has become full, causing a stall
system.cpu0.iew.iewSquashCycles              14032320                       # Number of cycles IEW is squashing
system.cpu0.iew.iewUnblockCycles             14969499                       # Number of cycles IEW is unblocking
system.cpu0.iew.lsq.thread0.blockedLoads            0                       # Number of blocked loads due to partial load-store forwarding
system.cpu0.iew.lsq.thread0.cacheBlocked       146240                       # Number of times an access to memory failed due to the cache being blocked
system.cpu0.iew.lsq.thread0.forwLoads        24489313                       # Number of loads that had data forwarded from stores
system.cpu0.iew.lsq.thread0.ignoredResponses        42328                       # Number of memory responses ignored because the instruction is squashed
system.cpu0.iew.lsq.thread0.invAddrLoads            0                       # Number of loads ignored due to an invalid address
system.cpu0.iew.lsq.thread0.invAddrSwpfs            0                       # Number of software prefetches ignored due to an invalid address
system.cpu0.iew.lsq.thread0.memOrderViolation         7944                       # Number of memory ordering violations
system.cpu0.iew.lsq.thread0.rescheduledLoads      4429048                       # Number of loads that were rescheduled
system.cpu0.iew.lsq.thread0.squashedLoads     40626647                       # Number of loads squashed
system.cpu0.iew.lsq.thread0.squashedStores      3197827                       # Number of stores squashed
system.cpu0.iew.memOrderViolationEvents          7944                       # Number of memory order violations
system.cpu0.iew.predictedNotTakenIncorrect       720875                       # Number of branches that were predicted not taken incorrectly
system.cpu0.iew.predictedTakenIncorrect      13389856                       # Number of branches that were predicted taken incorrectly
system.cpu0.iew.wb_consumers                624554609                       # num instructions consuming a value
system.cpu0.iew.wb_count                   1365553689                       # cumulative count of insts written-back
system.cpu0.iew.wb_fanout                    0.835095                       # average fanout of values written-back
system.cpu0.iew.wb_producers                521562351                       # num instructions producing a value
system.cpu0.iew.wb_rate                      0.541504                       # insts written-back per cycle
system.cpu0.iew.wb_sent                    1365624985                       # cumulative count of insts sent to commit
system.cpu0.int_regfile_reads              1690816303                       # number of integer regfile reads
system.cpu0.int_regfile_writes              885088987                       # number of integer regfile writes
system.cpu0.ipc                              0.522076                       # IPC: Instructions Per Cycle
system.cpu0.ipc_total                        0.522076                       # IPC: Total IPC of All Threads
system.cpu0.iq.FU_type_0::No_OpClass          4205622      0.30%      0.30% # Type of FU issued
system.cpu0.iq.FU_type_0::IntAlu            767511277     55.20%     55.51% # Type of FU issued
system.cpu0.iq.FU_type_0::IntMult            11847123      0.85%     56.36% # Type of FU issued
system.cpu0.iq.FU_type_0::IntDiv              2100413      0.15%     56.51% # Type of FU issued
system.cpu0.iq.FU_type_0::FloatAdd                  0      0.00%     56.51% # Type of FU issued
system.cpu0.iq.FU_type_0::FloatCmp                  4      0.00%     56.51% # Type of FU issued
system.cpu0.iq.FU_type_0::FloatCvt                 12      0.00%     56.51% # Type of FU issued
system.cpu0.iq.FU_type_0::FloatMult                 0      0.00%     56.51% # Type of FU issued
system.cpu0.iq.FU_type_0::FloatMultAcc              0      0.00%     56.51% # Type of FU issued
system.cpu0.iq.FU_type_0::FloatDiv                  2      0.00%     56.51% # Type of FU issued
system.cpu0.iq.FU_type_0::FloatMisc                 4      0.00%     56.51% # Type of FU issued
system.cpu0.iq.FU_type_0::FloatSqrt                 0      0.00%     56.51% # Type of FU issued
system.cpu0.iq.FU_type_0::SimdAdd                   0      0.00%     56.51% # Type of FU issued
system.cpu0.iq.FU_type_0::SimdAddAcc                0      0.00%     56.51% # Type of FU issued
system.cpu0.iq.FU_type_0::SimdAlu                   0      0.00%     56.51% # Type of FU issued
system.cpu0.iq.FU_type_0::SimdCmp                   0      0.00%     56.51% # Type of FU issued
system.cpu0.iq.FU_type_0::SimdCvt                   0      0.00%     56.51% # Type of FU issued
system.cpu0.iq.FU_type_0::SimdMisc                  0      0.00%     56.51% # Type of FU issued
system.cpu0.iq.FU_type_0::SimdMult                  0      0.00%     56.51% # Type of FU issued
system.cpu0.iq.FU_type_0::SimdMultAcc               0      0.00%     56.51% # Type of FU issued
system.cpu0.iq.FU_type_0::SimdShift                 0      0.00%     56.51% # Type of FU issued
system.cpu0.iq.FU_type_0::SimdShiftAcc              0      0.00%     56.51% # Type of FU issued
system.cpu0.iq.FU_type_0::SimdDiv                   0      0.00%     56.51% # Type of FU issued
system.cpu0.iq.FU_type_0::SimdSqrt                  0      0.00%     56.51% # Type of FU issued
system.cpu0.iq.FU_type_0::SimdFloatAdd              0      0.00%     56.51% # Type of FU issued
system.cpu0.iq.FU_type_0::SimdFloatAlu              0      0.00%     56.51% # Type of FU issued
system.cpu0.iq.FU_type_0::SimdFloatCmp              0      0.00%     56.51% # Type of FU issued
system.cpu0.iq.FU_type_0::SimdFloatCvt              0      0.00%     56.51% # Type of FU issued
system.cpu0.iq.FU_type_0::SimdFloatDiv              0      0.00%     56.51% # Type of FU issued
system.cpu0.iq.FU_type_0::SimdFloatMisc             0      0.00%     56.51% # Type of FU issued
system.cpu0.iq.FU_type_0::SimdFloatMult             0      0.00%     56.51% # Type of FU issued
system.cpu0.iq.FU_type_0::SimdFloatMultAcc            0      0.00%     56.51% # Type of FU issued
system.cpu0.iq.FU_type_0::SimdFloatSqrt             0      0.00%     56.51% # Type of FU issued
system.cpu0.iq.FU_type_0::SimdReduceAdd             0      0.00%     56.51% # Type of FU issued
system.cpu0.iq.FU_type_0::SimdReduceAlu             0      0.00%     56.51% # Type of FU issued
system.cpu0.iq.FU_type_0::SimdReduceCmp             0      0.00%     56.51% # Type of FU issued
system.cpu0.iq.FU_type_0::SimdFloatReduceAdd            0      0.00%     56.51% # Type of FU issued
system.cpu0.iq.FU_type_0::SimdFloatReduceCmp            0      0.00%     56.51% # Type of FU issued
system.cpu0.iq.FU_type_0::SimdAes                   0      0.00%     56.51% # Type of FU issued
system.cpu0.iq.FU_type_0::SimdAesMix                0      0.00%     56.51% # Type of FU issued
system.cpu0.iq.FU_type_0::SimdSha1Hash              0      0.00%     56.51% # Type of FU issued
system.cpu0.iq.FU_type_0::SimdSha1Hash2             0      0.00%     56.51% # Type of FU issued
system.cpu0.iq.FU_type_0::SimdSha256Hash            0      0.00%     56.51% # Type of FU issued
system.cpu0.iq.FU_type_0::SimdSha256Hash2            0      0.00%     56.51% # Type of FU issued
system.cpu0.iq.FU_type_0::SimdShaSigma2             0      0.00%     56.51% # Type of FU issued
system.cpu0.iq.FU_type_0::SimdShaSigma3             0      0.00%     56.51% # Type of FU issued
system.cpu0.iq.FU_type_0::SimdPredAlu               0      0.00%     56.51% # Type of FU issued
system.cpu0.iq.FU_type_0::MemRead           450649414     32.41%     88.92% # Type of FU issued
system.cpu0.iq.FU_type_0::MemWrite          153994952     11.08%    100.00% # Type of FU issued
system.cpu0.iq.FU_type_0::FloatMemRead              9      0.00%    100.00% # Type of FU issued
system.cpu0.iq.FU_type_0::FloatMemWrite            16      0.00%    100.00% # Type of FU issued
system.cpu0.iq.FU_type_0::IprAccess                 0      0.00%    100.00% # Type of FU issued
system.cpu0.iq.FU_type_0::InstPrefetch              0      0.00%    100.00% # Type of FU issued
system.cpu0.iq.FU_type_0::total            1390308848                       # Type of FU issued
system.cpu0.iq.fp_alu_accesses                     50                       # Number of floating point alu accesses
system.cpu0.iq.fp_inst_queue_reads                 97                       # Number of floating instruction queue reads
system.cpu0.iq.fp_inst_queue_wakeup_accesses           47                       # Number of floating instruction queue wakeup accesses
system.cpu0.iq.fp_inst_queue_writes                48                       # Number of floating instruction queue writes
system.cpu0.iq.fu_busy_cnt                    3270312                       # FU busy when requested
system.cpu0.iq.fu_busy_rate                  0.002352                       # FU busy rate (busy events/executed inst)
system.cpu0.iq.fu_full::No_OpClass                  0      0.00%      0.00% # attempts to use FU when none available
system.cpu0.iq.fu_full::IntAlu                 915041     27.98%     27.98% # attempts to use FU when none available
system.cpu0.iq.fu_full::IntMult                     0      0.00%     27.98% # attempts to use FU when none available
system.cpu0.iq.fu_full::IntDiv                      0      0.00%     27.98% # attempts to use FU when none available
system.cpu0.iq.fu_full::FloatAdd                    0      0.00%     27.98% # attempts to use FU when none available
system.cpu0.iq.fu_full::FloatCmp                    0      0.00%     27.98% # attempts to use FU when none available
system.cpu0.iq.fu_full::FloatCvt                    0      0.00%     27.98% # attempts to use FU when none available
system.cpu0.iq.fu_full::FloatMult                   0      0.00%     27.98% # attempts to use FU when none available
system.cpu0.iq.fu_full::FloatMultAcc                0      0.00%     27.98% # attempts to use FU when none available
system.cpu0.iq.fu_full::FloatDiv                    0      0.00%     27.98% # attempts to use FU when none available
system.cpu0.iq.fu_full::FloatMisc                   0      0.00%     27.98% # attempts to use FU when none available
system.cpu0.iq.fu_full::FloatSqrt                   0      0.00%     27.98% # attempts to use FU when none available
system.cpu0.iq.fu_full::SimdAdd                     0      0.00%     27.98% # attempts to use FU when none available
system.cpu0.iq.fu_full::SimdAddAcc                  0      0.00%     27.98% # attempts to use FU when none available
system.cpu0.iq.fu_full::SimdAlu                     0      0.00%     27.98% # attempts to use FU when none available
system.cpu0.iq.fu_full::SimdCmp                     0      0.00%     27.98% # attempts to use FU when none available
system.cpu0.iq.fu_full::SimdCvt                     0      0.00%     27.98% # attempts to use FU when none available
system.cpu0.iq.fu_full::SimdMisc                    0      0.00%     27.98% # attempts to use FU when none available
system.cpu0.iq.fu_full::SimdMult                    0      0.00%     27.98% # attempts to use FU when none available
system.cpu0.iq.fu_full::SimdMultAcc                 0      0.00%     27.98% # attempts to use FU when none available
system.cpu0.iq.fu_full::SimdShift                   0      0.00%     27.98% # attempts to use FU when none available
system.cpu0.iq.fu_full::SimdShiftAcc                0      0.00%     27.98% # attempts to use FU when none available
system.cpu0.iq.fu_full::SimdDiv                     0      0.00%     27.98% # attempts to use FU when none available
system.cpu0.iq.fu_full::SimdSqrt                    0      0.00%     27.98% # attempts to use FU when none available
system.cpu0.iq.fu_full::SimdFloatAdd                0      0.00%     27.98% # attempts to use FU when none available
system.cpu0.iq.fu_full::SimdFloatAlu                0      0.00%     27.98% # attempts to use FU when none available
system.cpu0.iq.fu_full::SimdFloatCmp                0      0.00%     27.98% # attempts to use FU when none available
system.cpu0.iq.fu_full::SimdFloatCvt                0      0.00%     27.98% # attempts to use FU when none available
system.cpu0.iq.fu_full::SimdFloatDiv                0      0.00%     27.98% # attempts to use FU when none available
system.cpu0.iq.fu_full::SimdFloatMisc               0      0.00%     27.98% # attempts to use FU when none available
system.cpu0.iq.fu_full::SimdFloatMult               0      0.00%     27.98% # attempts to use FU when none available
system.cpu0.iq.fu_full::SimdFloatMultAcc            0      0.00%     27.98% # attempts to use FU when none available
system.cpu0.iq.fu_full::SimdFloatSqrt               0      0.00%     27.98% # attempts to use FU when none available
system.cpu0.iq.fu_full::SimdReduceAdd               0      0.00%     27.98% # attempts to use FU when none available
system.cpu0.iq.fu_full::SimdReduceAlu               0      0.00%     27.98% # attempts to use FU when none available
system.cpu0.iq.fu_full::SimdReduceCmp               0      0.00%     27.98% # attempts to use FU when none available
system.cpu0.iq.fu_full::SimdFloatReduceAdd            0      0.00%     27.98% # attempts to use FU when none available
system.cpu0.iq.fu_full::SimdFloatReduceCmp            0      0.00%     27.98% # attempts to use FU when none available
system.cpu0.iq.fu_full::SimdAes                     0      0.00%     27.98% # attempts to use FU when none available
system.cpu0.iq.fu_full::SimdAesMix                  0      0.00%     27.98% # attempts to use FU when none available
system.cpu0.iq.fu_full::SimdSha1Hash                0      0.00%     27.98% # attempts to use FU when none available
system.cpu0.iq.fu_full::SimdSha1Hash2               0      0.00%     27.98% # attempts to use FU when none available
system.cpu0.iq.fu_full::SimdSha256Hash              0      0.00%     27.98% # attempts to use FU when none available
system.cpu0.iq.fu_full::SimdSha256Hash2             0      0.00%     27.98% # attempts to use FU when none available
system.cpu0.iq.fu_full::SimdShaSigma2               0      0.00%     27.98% # attempts to use FU when none available
system.cpu0.iq.fu_full::SimdShaSigma3               0      0.00%     27.98% # attempts to use FU when none available
system.cpu0.iq.fu_full::SimdPredAlu                 0      0.00%     27.98% # attempts to use FU when none available
system.cpu0.iq.fu_full::MemRead               1924824     58.86%     86.84% # attempts to use FU when none available
system.cpu0.iq.fu_full::MemWrite               430444     13.16%    100.00% # attempts to use FU when none available
system.cpu0.iq.fu_full::FloatMemRead                0      0.00%    100.00% # attempts to use FU when none available
system.cpu0.iq.fu_full::FloatMemWrite               3      0.00%    100.00% # attempts to use FU when none available
system.cpu0.iq.fu_full::IprAccess                   0      0.00%    100.00% # attempts to use FU when none available
system.cpu0.iq.fu_full::InstPrefetch                0      0.00%    100.00% # attempts to use FU when none available
system.cpu0.iq.int_alu_accesses            1389373488                       # Number of integer alu accesses
system.cpu0.iq.int_inst_queue_reads        5131677656                       # Number of integer instruction queue reads
system.cpu0.iq.int_inst_queue_wakeup_accesses   1365553642                       # Number of integer instruction queue wakeup accesses
system.cpu0.iq.int_inst_queue_writes       1467749597                       # Number of integer instruction queue writes
system.cpu0.iq.iqInstsAdded                1386893159                       # Number of instructions added to the IQ (excludes non-spec)
system.cpu0.iq.iqInstsIssued               1390308848                       # Number of instructions issued
system.cpu0.iq.iqNonSpecInstsAdded            6310556                       # Number of non-speculative instructions added to the IQ
system.cpu0.iq.iqSquashedInstsExamined       74538302                       # Number of squashed instructions iterated over during squash; mainly for profiling
system.cpu0.iq.iqSquashedInstsIssued           129643                       # Number of squashed instructions issued
system.cpu0.iq.iqSquashedNonSpecRemoved           783                       # Number of squashed non-spec instructions that were removed
system.cpu0.iq.iqSquashedOperandsExamined     24120403                       # Number of squashed operands that are examined and possibly removed from graph
system.cpu0.iq.issued_per_cycle::samples   2347660104                       # Number of insts issued each cycle
system.cpu0.iq.issued_per_cycle::mean        0.592210                       # Number of insts issued each cycle
system.cpu0.iq.issued_per_cycle::stdev       0.841374                       # Number of insts issued each cycle
system.cpu0.iq.issued_per_cycle::underflows            0      0.00%      0.00% # Number of insts issued each cycle
system.cpu0.iq.issued_per_cycle::0         1357870618     57.84%     57.84% # Number of insts issued each cycle
system.cpu0.iq.issued_per_cycle::1          693763330     29.55%     87.39% # Number of insts issued each cycle
system.cpu0.iq.issued_per_cycle::2          218000159      9.29%     96.68% # Number of insts issued each cycle
system.cpu0.iq.issued_per_cycle::3           61289899      2.61%     99.29% # Number of insts issued each cycle
system.cpu0.iq.issued_per_cycle::4           11665934      0.50%     99.78% # Number of insts issued each cycle
system.cpu0.iq.issued_per_cycle::5            1835025      0.08%     99.86% # Number of insts issued each cycle
system.cpu0.iq.issued_per_cycle::6            2000354      0.09%     99.95% # Number of insts issued each cycle
system.cpu0.iq.issued_per_cycle::7            1043762      0.04%     99.99% # Number of insts issued each cycle
system.cpu0.iq.issued_per_cycle::8             191023      0.01%    100.00% # Number of insts issued each cycle
system.cpu0.iq.issued_per_cycle::overflows            0      0.00%    100.00% # Number of insts issued each cycle
system.cpu0.iq.issued_per_cycle::min_value            0                       # Number of insts issued each cycle
system.cpu0.iq.issued_per_cycle::max_value            8                       # Number of insts issued each cycle
system.cpu0.iq.issued_per_cycle::total     2347660104                       # Number of insts issued each cycle
system.cpu0.iq.rate                          0.551320                       # Inst issue rate
system.cpu0.iq.vec_alu_accesses                     0                       # Number of vector alu accesses
system.cpu0.iq.vec_inst_queue_reads                 0                       # Number of vector instruction queue reads
system.cpu0.iq.vec_inst_queue_wakeup_accesses            0                       # Number of vector instruction queue wakeup accesses
system.cpu0.iq.vec_inst_queue_writes                0                       # Number of vector instruction queue writes
system.cpu0.itb.accesses                            0                       # DTB accesses
system.cpu0.itb.hits                                0                       # DTB hits
system.cpu0.itb.misses                              0                       # DTB misses
system.cpu0.itb.read_accesses                       0                       # DTB read accesses
system.cpu0.itb.read_hits                           0                       # DTB read hits
system.cpu0.itb.read_misses                         0                       # DTB read misses
system.cpu0.itb.write_accesses                      0                       # DTB write accesses
system.cpu0.itb.write_hits                          0                       # DTB write hits
system.cpu0.itb.write_misses                        0                       # DTB write misses
system.cpu0.memDep0.conflictingLoads         19511860                       # Number of conflicting loads.
system.cpu0.memDep0.conflictingStores         1402921                       # Number of conflicting stores.
system.cpu0.memDep0.insertedLoads           445799414                       # Number of loads inserted to the mem dependence unit.
system.cpu0.memDep0.insertedStores          156483860                       # Number of stores inserted to the mem dependence unit.
system.cpu0.misc_regfile_reads                   1894                       # number of misc regfile reads
system.cpu0.misc_regfile_writes                    22                       # number of misc regfile writes
system.cpu0.numCycles                      2521779861                       # number of cpu cycles simulated
system.cpu0.numWorkItemsCompleted                   0                       # number of work items this cpu completed
system.cpu0.numWorkItemsStarted                     0                       # number of work items this cpu started
system.cpu0.quiesceCycles                     4868465                       # Total number of cycles that CPU has spent quiesced or waiting for an interrupt
system.cpu0.rename.BlockCycles              372589311                       # Number of cycles rename is blocking
system.cpu0.rename.CommittedMaps            845205132                       # Number of HB maps that are committed
system.cpu0.rename.IQFullEvents              13962789                       # Number of times rename has blocked due to IQ full
system.cpu0.rename.IdleCycles               939000534                       # Number of cycles rename is idle
system.cpu0.rename.LQFullEvents              12815389                       # Number of times rename has blocked due to LQ full
system.cpu0.rename.ROBFullEvents                36471                       # Number of times rename has blocked due to ROB full
system.cpu0.rename.RenameLookups           1731614324                       # Number of register rename lookups that rename has made
system.cpu0.rename.RenamedInsts            1416516484                       # Number of instructions processed by rename
system.cpu0.rename.RenamedOperands          929690831                       # Number of destination operands rename has renamed
system.cpu0.rename.RunCycles                977936129                       # Number of cycles rename is running
system.cpu0.rename.SQFullEvents              16272645                       # Number of times rename has blocked due to SQ full
system.cpu0.rename.SquashCycles              14032320                       # Number of cycles rename is squashing
system.cpu0.rename.UnblockCycles             43948484                       # Number of cycles rename is unblocking
system.cpu0.rename.UndoneMaps                84485688                       # Number of HB maps that are undone due to squashing
system.cpu0.rename.fp_rename_lookups               40                       # Number of floating rename lookups
system.cpu0.rename.int_rename_lookups      1731614284                       # Number of integer rename lookups
system.cpu0.rename.serializeStallCycles        153326                       # count of cycles rename stalled for serializing inst
system.cpu0.rename.serializingInsts              5869                       # count of serializing insts renamed
system.cpu0.rename.skidInsts                 32055578                       # count of insts added to the skid buffer
system.cpu0.rename.tempSerializingInsts          5866                       # count of temporary serializing insts renamed
system.cpu0.rob.rob_reads                  3681507526                       # The number of ROB reads
system.cpu0.rob.rob_writes                 2808342146                       # The number of ROB writes
system.cpu0.timesIdled                       25528199                       # Number of times that the entire CPU went into an idle state and unscheduled itself
system.cpu0.workload.numSyscalls                 1861                       # Number of system calls
system.cpu1.branchPred.BTBCorrect                   0                       # Number of correct BTB predictions (this stat may not work properly.
system.cpu1.branchPred.BTBHitPct            82.946620                       # BTB Hit Percentage
system.cpu1.branchPred.BTBHits               20361446                       # Number of BTB hits
system.cpu1.branchPred.BTBLookups            24547650                       # Number of BTB lookups
system.cpu1.branchPred.RASInCorrect                 0                       # Number of incorrect RAS predictions.
system.cpu1.branchPred.condIncorrect          2764618                       # Number of conditional branches incorrect
system.cpu1.branchPred.condPredicted         30205651                       # Number of conditional branches predicted
system.cpu1.branchPred.indirectHits           1062749                       # Number of indirect target hits.
system.cpu1.branchPred.indirectLookups        1077017                       # Number of indirect predictor lookups.
system.cpu1.branchPred.indirectMisses           14268                       # Number of indirect misses.
system.cpu1.branchPred.lookups               34711521                       # Number of BP lookups
system.cpu1.branchPred.usedRAS                      0                       # Number of times the RAS was used to get a target.
system.cpu1.branchPredindirectMispredicted        47927                       # Number of mispredicted indirect branches.
system.cpu1.commit.amos                       2099994                       # Number of atomic instructions committed
system.cpu1.commit.branchMispredicts          1959898                       # The number of times a branch was mispredicted
system.cpu1.commit.branches                  28126371                       # Number of branches committed
system.cpu1.commit.bw_lim_events              3372906                       # number cycles where commit BW limit reached
system.cpu1.commit.commitNonSpecStalls        6300649                       # The number of times commit has been forced to stall to communicate backwards
system.cpu1.commit.commitSquashedInsts       14564112                       # The number of squashed insts skipped by commit
system.cpu1.commit.committedInsts           120104109                       # Number of instructions committed
system.cpu1.commit.committedOps             122204280                       # Number of ops (including micro ops) committed
system.cpu1.commit.committed_per_cycle::samples    435563391                       # Number of insts commited each cycle
system.cpu1.commit.committed_per_cycle::mean     0.280566                       # Number of insts commited each cycle
system.cpu1.commit.committed_per_cycle::stdev     1.029356                       # Number of insts commited each cycle
system.cpu1.commit.committed_per_cycle::underflows            0      0.00%      0.00% # Number of insts commited each cycle
system.cpu1.commit.committed_per_cycle::0    383717513     88.10%     88.10% # Number of insts commited each cycle
system.cpu1.commit.committed_per_cycle::1     26516680      6.09%     94.18% # Number of insts commited each cycle
system.cpu1.commit.committed_per_cycle::2      8612633      1.98%     96.16% # Number of insts commited each cycle
system.cpu1.commit.committed_per_cycle::3      8016585      1.84%     98.00% # Number of insts commited each cycle
system.cpu1.commit.committed_per_cycle::4      2085563      0.48%     98.48% # Number of insts commited each cycle
system.cpu1.commit.committed_per_cycle::5       729040      0.17%     98.65% # Number of insts commited each cycle
system.cpu1.commit.committed_per_cycle::6      2145418      0.49%     99.14% # Number of insts commited each cycle
system.cpu1.commit.committed_per_cycle::7       367053      0.08%     99.23% # Number of insts commited each cycle
system.cpu1.commit.committed_per_cycle::8      3372906      0.77%    100.00% # Number of insts commited each cycle
system.cpu1.commit.committed_per_cycle::overflows            0      0.00%    100.00% # Number of insts commited each cycle
system.cpu1.commit.committed_per_cycle::min_value            0                       # Number of insts commited each cycle
system.cpu1.commit.committed_per_cycle::max_value            8                       # Number of insts commited each cycle
system.cpu1.commit.committed_per_cycle::total    435563391                       # Number of insts commited each cycle
system.cpu1.commit.fp_insts                        12                       # Number of committed floating point instructions.
system.cpu1.commit.function_calls             1799019                       # Number of function calls committed.
system.cpu1.commit.int_insts                116640624                       # Number of committed integer instructions.
system.cpu1.commit.loads                     30181415                       # Number of loads committed
system.cpu1.commit.membars                    4200109                       # Number of memory barriers committed
system.cpu1.commit.op_class_0::No_OpClass      4200109      3.44%      3.44% # Class of committed instruction
system.cpu1.commit.op_class_0::IntAlu        76693961     62.76%     66.20% # Class of committed instruction
system.cpu1.commit.op_class_0::IntMult             44      0.00%     66.20% # Class of committed instruction
system.cpu1.commit.op_class_0::IntDiv              88      0.00%     66.20% # Class of committed instruction
system.cpu1.commit.op_class_0::FloatAdd             0      0.00%     66.20% # Class of committed instruction
system.cpu1.commit.op_class_0::FloatCmp             0      0.00%     66.20% # Class of committed instruction
system.cpu1.commit.op_class_0::FloatCvt             0      0.00%     66.20% # Class of committed instruction
system.cpu1.commit.op_class_0::FloatMult            0      0.00%     66.20% # Class of committed instruction
system.cpu1.commit.op_class_0::FloatMultAcc            0      0.00%     66.20% # Class of committed instruction
system.cpu1.commit.op_class_0::FloatDiv             0      0.00%     66.20% # Class of committed instruction
system.cpu1.commit.op_class_0::FloatMisc            0      0.00%     66.20% # Class of committed instruction
system.cpu1.commit.op_class_0::FloatSqrt            0      0.00%     66.20% # Class of committed instruction
system.cpu1.commit.op_class_0::SimdAdd              0      0.00%     66.20% # Class of committed instruction
system.cpu1.commit.op_class_0::SimdAddAcc            0      0.00%     66.20% # Class of committed instruction
system.cpu1.commit.op_class_0::SimdAlu              0      0.00%     66.20% # Class of committed instruction
system.cpu1.commit.op_class_0::SimdCmp              0      0.00%     66.20% # Class of committed instruction
system.cpu1.commit.op_class_0::SimdCvt              0      0.00%     66.20% # Class of committed instruction
system.cpu1.commit.op_class_0::SimdMisc             0      0.00%     66.20% # Class of committed instruction
system.cpu1.commit.op_class_0::SimdMult             0      0.00%     66.20% # Class of committed instruction
system.cpu1.commit.op_class_0::SimdMultAcc            0      0.00%     66.20% # Class of committed instruction
system.cpu1.commit.op_class_0::SimdShift            0      0.00%     66.20% # Class of committed instruction
system.cpu1.commit.op_class_0::SimdShiftAcc            0      0.00%     66.20% # Class of committed instruction
system.cpu1.commit.op_class_0::SimdDiv              0      0.00%     66.20% # Class of committed instruction
system.cpu1.commit.op_class_0::SimdSqrt             0      0.00%     66.20% # Class of committed instruction
system.cpu1.commit.op_class_0::SimdFloatAdd            0      0.00%     66.20% # Class of committed instruction
system.cpu1.commit.op_class_0::SimdFloatAlu            0      0.00%     66.20% # Class of committed instruction
system.cpu1.commit.op_class_0::SimdFloatCmp            0      0.00%     66.20% # Class of committed instruction
system.cpu1.commit.op_class_0::SimdFloatCvt            0      0.00%     66.20% # Class of committed instruction
system.cpu1.commit.op_class_0::SimdFloatDiv            0      0.00%     66.20% # Class of committed instruction
system.cpu1.commit.op_class_0::SimdFloatMisc            0      0.00%     66.20% # Class of committed instruction
system.cpu1.commit.op_class_0::SimdFloatMult            0      0.00%     66.20% # Class of committed instruction
system.cpu1.commit.op_class_0::SimdFloatMultAcc            0      0.00%     66.20% # Class of committed instruction
system.cpu1.commit.op_class_0::SimdFloatSqrt            0      0.00%     66.20% # Class of committed instruction
system.cpu1.commit.op_class_0::SimdReduceAdd            0      0.00%     66.20% # Class of committed instruction
system.cpu1.commit.op_class_0::SimdReduceAlu            0      0.00%     66.20% # Class of committed instruction
system.cpu1.commit.op_class_0::SimdReduceCmp            0      0.00%     66.20% # Class of committed instruction
system.cpu1.commit.op_class_0::SimdFloatReduceAdd            0      0.00%     66.20% # Class of committed instruction
system.cpu1.commit.op_class_0::SimdFloatReduceCmp            0      0.00%     66.20% # Class of committed instruction
system.cpu1.commit.op_class_0::SimdAes              0      0.00%     66.20% # Class of committed instruction
system.cpu1.commit.op_class_0::SimdAesMix            0      0.00%     66.20% # Class of committed instruction
system.cpu1.commit.op_class_0::SimdSha1Hash            0      0.00%     66.20% # Class of committed instruction
system.cpu1.commit.op_class_0::SimdSha1Hash2            0      0.00%     66.20% # Class of committed instruction
system.cpu1.commit.op_class_0::SimdSha256Hash            0      0.00%     66.20% # Class of committed instruction
system.cpu1.commit.op_class_0::SimdSha256Hash2            0      0.00%     66.20% # Class of committed instruction
system.cpu1.commit.op_class_0::SimdShaSigma2            0      0.00%     66.20% # Class of committed instruction
system.cpu1.commit.op_class_0::SimdShaSigma3            0      0.00%     66.20% # Class of committed instruction
system.cpu1.commit.op_class_0::SimdPredAlu            0      0.00%     66.20% # Class of committed instruction
system.cpu1.commit.op_class_0::MemRead       32281409     26.42%     92.61% # Class of committed instruction
system.cpu1.commit.op_class_0::MemWrite       9028657      7.39%    100.00% # Class of committed instruction
system.cpu1.commit.op_class_0::FloatMemRead            0      0.00%    100.00% # Class of committed instruction
system.cpu1.commit.op_class_0::FloatMemWrite           12      0.00%    100.00% # Class of committed instruction
system.cpu1.commit.op_class_0::IprAccess            0      0.00%    100.00% # Class of committed instruction
system.cpu1.commit.op_class_0::InstPrefetch            0      0.00%    100.00% # Class of committed instruction
system.cpu1.commit.op_class_0::total        122204280                       # Class of committed instruction
system.cpu1.commit.refs                      41310078                       # Number of memory references committed
system.cpu1.commit.swp_count                        0                       # Number of s/w prefetches committed
system.cpu1.commit.vec_insts                        0                       # Number of committed Vector instructions.
system.cpu1.committedInsts                  120104109                       # Number of Instructions Simulated
system.cpu1.committedOps                    122204280                       # Number of Ops (including micro ops) Simulated
system.cpu1.cpi                              3.670611                       # CPI: Cycles Per Instruction
system.cpu1.cpi_total                        3.670611                       # CPI: Total CPI of All Threads
system.cpu1.decode.BlockedCycles            342565353                       # Number of cycles decode is blocked
system.cpu1.decode.BranchMispred               807392                       # Number of times decode detected a branch misprediction
system.cpu1.decode.BranchResolved            19381859                       # Number of times decode resolved a branch
system.cpu1.decode.DecodedInsts             144113600                       # Number of instructions handled by decode
system.cpu1.decode.IdleCycles                22378788                       # Number of cycles decode is idle
system.cpu1.decode.RunCycles                 66843759                       # Number of cycles decode is running
system.cpu1.decode.SquashCycles               1961069                       # Number of cycles decode is squashing
system.cpu1.decode.SquashedInsts              1349071                       # Number of squashed instructions handled by decode
system.cpu1.decode.UnblockCycles              4905699                       # Number of cycles decode is unblocking
system.cpu1.dtb.accesses                            0                       # DTB accesses
system.cpu1.dtb.hits                                0                       # DTB hits
system.cpu1.dtb.misses                              0                       # DTB misses
system.cpu1.dtb.read_accesses                       0                       # DTB read accesses
system.cpu1.dtb.read_hits                           0                       # DTB read hits
system.cpu1.dtb.read_misses                         0                       # DTB read misses
system.cpu1.dtb.write_accesses                      0                       # DTB write accesses
system.cpu1.dtb.write_hits                          0                       # DTB write hits
system.cpu1.dtb.write_misses                        0                       # DTB write misses
system.cpu1.fetch.Branches                   34711521                       # Number of branches that fetch encountered
system.cpu1.fetch.CacheLines                 20463223                       # Number of cache lines fetched
system.cpu1.fetch.Cycles                    413530710                       # Number of cycles fetch has run and was not squashing or blocked
system.cpu1.fetch.IcacheSquashes               412969                       # Number of outstanding Icache misses that were squashed
system.cpu1.fetch.Insts                     148870210                       # Number of instructions fetch has processed
system.cpu1.fetch.MiscStallCycles                   1                       # Number of cycles fetch has spent waiting on interrupts, or bad addresses, or out of MSHRs
system.cpu1.fetch.SquashCycles                5531578                       # Number of cycles fetch has spent squashing
system.cpu1.fetch.branchRate                 0.078737                       # Number of branch fetches per cycle
system.cpu1.fetch.icacheStallCycles          22358168                       # Number of cycles fetch is stalled on an Icache miss
system.cpu1.fetch.predictedBranches          21424195                       # Number of branches that fetch has predicted taken
system.cpu1.fetch.rate                       0.337685                       # Number of inst fetches per cycle
system.cpu1.fetch.rateDist::samples         438654668                       # Number of instructions fetched each cycle (Total)
system.cpu1.fetch.rateDist::mean             0.344168                       # Number of instructions fetched each cycle (Total)
system.cpu1.fetch.rateDist::stdev            0.784221                       # Number of instructions fetched each cycle (Total)
system.cpu1.fetch.rateDist::underflows              0      0.00%      0.00% # Number of instructions fetched each cycle (Total)
system.cpu1.fetch.rateDist::0               343721903     78.36%     78.36% # Number of instructions fetched each cycle (Total)
system.cpu1.fetch.rateDist::1                61149284     13.94%     92.30% # Number of instructions fetched each cycle (Total)
system.cpu1.fetch.rateDist::2                16871079      3.85%     96.14% # Number of instructions fetched each cycle (Total)
system.cpu1.fetch.rateDist::3                12998807      2.96%     99.11% # Number of instructions fetched each cycle (Total)
system.cpu1.fetch.rateDist::4                 2803128      0.64%     99.75% # Number of instructions fetched each cycle (Total)
system.cpu1.fetch.rateDist::5                  792668      0.18%     99.93% # Number of instructions fetched each cycle (Total)
system.cpu1.fetch.rateDist::6                  317690      0.07%    100.00% # Number of instructions fetched each cycle (Total)
system.cpu1.fetch.rateDist::7                       7      0.00%    100.00% # Number of instructions fetched each cycle (Total)
system.cpu1.fetch.rateDist::8                     102      0.00%    100.00% # Number of instructions fetched each cycle (Total)
system.cpu1.fetch.rateDist::overflows               0      0.00%    100.00% # Number of instructions fetched each cycle (Total)
system.cpu1.fetch.rateDist::min_value               0                       # Number of instructions fetched each cycle (Total)
system.cpu1.fetch.rateDist::max_value               8                       # Number of instructions fetched each cycle (Total)
system.cpu1.fetch.rateDist::total           438654668                       # Number of instructions fetched each cycle (Total)
system.cpu1.fp_regfile_reads                       12                       # number of floating regfile reads
system.cpu1.idleCycles                        2200764                       # Total number of cycles that the CPU has spent unscheduled due to idling
system.cpu1.iew.branchMispredicts             2022752                       # Number of branch mispredicts detected at execute
system.cpu1.iew.exec_branches                30212549                       # Number of branches executed
system.cpu1.iew.exec_nop                            0                       # number of nop insts executed
system.cpu1.iew.exec_rate                    0.299945                       # Inst execution rate
system.cpu1.iew.exec_refs                    45214090                       # number of memory reference insts executed
system.cpu1.iew.exec_stores                  11582162                       # Number of stores executed
system.cpu1.iew.exec_swp                            0                       # number of swp insts executed
system.cpu1.iew.iewBlockCycles              281601703                       # Number of cycles IEW is blocking
system.cpu1.iew.iewDispLoadInsts             34107538                       # Number of dispatched load instructions
system.cpu1.iew.iewDispNonSpecInsts           2100638                       # Number of dispatched non-speculative instructions
system.cpu1.iew.iewDispSquashedInsts          2346995                       # Number of squashed instructions skipped by dispatch
system.cpu1.iew.iewDispStoreInsts            11999267                       # Number of dispatched store instructions
system.cpu1.iew.iewDispatchedInsts          136730824                       # Number of instructions dispatched to IQ
system.cpu1.iew.iewExecLoadInsts             33631928                       # Number of load instructions executed
system.cpu1.iew.iewExecSquashedInsts          1856770                       # Number of squashed instructions skipped in execute
system.cpu1.iew.iewExecutedInsts            132232302                       # Number of executed instructions
system.cpu1.iew.iewIQFullEvents               1470014                       # Number of times the IQ has become full, causing a stall
system.cpu1.iew.iewIdleCycles                       0                       # Number of cycles IEW is idle
system.cpu1.iew.iewLSQFullEvents              8785617                       # Number of times the LSQ has become full, causing a stall
system.cpu1.iew.iewSquashCycles               1961069                       # Number of cycles IEW is squashing
system.cpu1.iew.iewUnblockCycles             12862812                       # Number of cycles IEW is unblocking
system.cpu1.iew.lsq.thread0.blockedLoads            0                       # Number of blocked loads due to partial load-store forwarding
system.cpu1.iew.lsq.thread0.cacheBlocked        65304                       # Number of times an access to memory failed due to the cache being blocked
system.cpu1.iew.lsq.thread0.forwLoads          703419                       # Number of loads that had data forwarded from stores
system.cpu1.iew.lsq.thread0.ignoredResponses        37417                       # Number of memory responses ignored because the instruction is squashed
system.cpu1.iew.lsq.thread0.invAddrLoads            0                       # Number of loads ignored due to an invalid address
system.cpu1.iew.lsq.thread0.invAddrSwpfs            0                       # Number of software prefetches ignored due to an invalid address
system.cpu1.iew.lsq.thread0.memOrderViolation         1528                       # Number of memory ordering violations
system.cpu1.iew.lsq.thread0.rescheduledLoads         9543                       # Number of loads that were rescheduled
system.cpu1.iew.lsq.thread0.squashedLoads      3926123                       # Number of loads squashed
system.cpu1.iew.lsq.thread0.squashedStores       870604                       # Number of stores squashed
system.cpu1.iew.memOrderViolationEvents          1528                       # Number of memory order violations
system.cpu1.iew.predictedNotTakenIncorrect       518890                       # Number of branches that were predicted not taken incorrectly
system.cpu1.iew.predictedTakenIncorrect       1503862                       # Number of branches that were predicted taken incorrectly
system.cpu1.iew.wb_consumers                 75172414                       # num instructions consuming a value
system.cpu1.iew.wb_count                    130818735                       # cumulative count of insts written-back
system.cpu1.iew.wb_fanout                    0.853453                       # average fanout of values written-back
system.cpu1.iew.wb_producers                 64156130                       # num instructions producing a value
system.cpu1.iew.wb_rate                      0.296738                       # insts written-back per cycle
system.cpu1.iew.wb_sent                     130870854                       # cumulative count of insts sent to commit
system.cpu1.int_regfile_reads               167842050                       # number of integer regfile reads
system.cpu1.int_regfile_writes               87972679                       # number of integer regfile writes
system.cpu1.ipc                              0.272434                       # IPC: Instructions Per Cycle
system.cpu1.ipc_total                        0.272434                       # IPC: Total IPC of All Threads
system.cpu1.iq.FU_type_0::No_OpClass          4200207      3.13%      3.13% # Type of FU issued
system.cpu1.iq.FU_type_0::IntAlu             84192802     62.79%     65.92% # Type of FU issued
system.cpu1.iq.FU_type_0::IntMult                  48      0.00%     65.92% # Type of FU issued
system.cpu1.iq.FU_type_0::IntDiv                   88      0.00%     65.92% # Type of FU issued
system.cpu1.iq.FU_type_0::FloatAdd                  0      0.00%     65.92% # Type of FU issued
system.cpu1.iq.FU_type_0::FloatCmp                  0      0.00%     65.92% # Type of FU issued
system.cpu1.iq.FU_type_0::FloatCvt                  0      0.00%     65.92% # Type of FU issued
system.cpu1.iq.FU_type_0::FloatMult                 0      0.00%     65.92% # Type of FU issued
system.cpu1.iq.FU_type_0::FloatMultAcc              0      0.00%     65.92% # Type of FU issued
system.cpu1.iq.FU_type_0::FloatDiv                  0      0.00%     65.92% # Type of FU issued
system.cpu1.iq.FU_type_0::FloatMisc                 0      0.00%     65.92% # Type of FU issued
system.cpu1.iq.FU_type_0::FloatSqrt                 0      0.00%     65.92% # Type of FU issued
system.cpu1.iq.FU_type_0::SimdAdd                   0      0.00%     65.92% # Type of FU issued
system.cpu1.iq.FU_type_0::SimdAddAcc                0      0.00%     65.92% # Type of FU issued
system.cpu1.iq.FU_type_0::SimdAlu                   0      0.00%     65.92% # Type of FU issued
system.cpu1.iq.FU_type_0::SimdCmp                   0      0.00%     65.92% # Type of FU issued
system.cpu1.iq.FU_type_0::SimdCvt                   0      0.00%     65.92% # Type of FU issued
system.cpu1.iq.FU_type_0::SimdMisc                  0      0.00%     65.92% # Type of FU issued
system.cpu1.iq.FU_type_0::SimdMult                  0      0.00%     65.92% # Type of FU issued
system.cpu1.iq.FU_type_0::SimdMultAcc               0      0.00%     65.92% # Type of FU issued
system.cpu1.iq.FU_type_0::SimdShift                 0      0.00%     65.92% # Type of FU issued
system.cpu1.iq.FU_type_0::SimdShiftAcc              0      0.00%     65.92% # Type of FU issued
system.cpu1.iq.FU_type_0::SimdDiv                   0      0.00%     65.92% # Type of FU issued
system.cpu1.iq.FU_type_0::SimdSqrt                  0      0.00%     65.92% # Type of FU issued
system.cpu1.iq.FU_type_0::SimdFloatAdd              0      0.00%     65.92% # Type of FU issued
system.cpu1.iq.FU_type_0::SimdFloatAlu              0      0.00%     65.92% # Type of FU issued
system.cpu1.iq.FU_type_0::SimdFloatCmp              0      0.00%     65.92% # Type of FU issued
system.cpu1.iq.FU_type_0::SimdFloatCvt              0      0.00%     65.92% # Type of FU issued
system.cpu1.iq.FU_type_0::SimdFloatDiv              0      0.00%     65.92% # Type of FU issued
system.cpu1.iq.FU_type_0::SimdFloatMisc             0      0.00%     65.92% # Type of FU issued
system.cpu1.iq.FU_type_0::SimdFloatMult             0      0.00%     65.92% # Type of FU issued
system.cpu1.iq.FU_type_0::SimdFloatMultAcc            0      0.00%     65.92% # Type of FU issued
system.cpu1.iq.FU_type_0::SimdFloatSqrt             0      0.00%     65.92% # Type of FU issued
system.cpu1.iq.FU_type_0::SimdReduceAdd             0      0.00%     65.92% # Type of FU issued
system.cpu1.iq.FU_type_0::SimdReduceAlu             0      0.00%     65.92% # Type of FU issued
system.cpu1.iq.FU_type_0::SimdReduceCmp             0      0.00%     65.92% # Type of FU issued
system.cpu1.iq.FU_type_0::SimdFloatReduceAdd            0      0.00%     65.92% # Type of FU issued
system.cpu1.iq.FU_type_0::SimdFloatReduceCmp            0      0.00%     65.92% # Type of FU issued
system.cpu1.iq.FU_type_0::SimdAes                   0      0.00%     65.92% # Type of FU issued
system.cpu1.iq.FU_type_0::SimdAesMix                0      0.00%     65.92% # Type of FU issued
system.cpu1.iq.FU_type_0::SimdSha1Hash              0      0.00%     65.92% # Type of FU issued
system.cpu1.iq.FU_type_0::SimdSha1Hash2             0      0.00%     65.92% # Type of FU issued
system.cpu1.iq.FU_type_0::SimdSha256Hash            0      0.00%     65.92% # Type of FU issued
system.cpu1.iq.FU_type_0::SimdSha256Hash2            0      0.00%     65.92% # Type of FU issued
system.cpu1.iq.FU_type_0::SimdShaSigma2             0      0.00%     65.92% # Type of FU issued
system.cpu1.iq.FU_type_0::SimdShaSigma3             0      0.00%     65.92% # Type of FU issued
system.cpu1.iq.FU_type_0::SimdPredAlu               0      0.00%     65.92% # Type of FU issued
system.cpu1.iq.FU_type_0::MemRead            36121075     26.94%     92.86% # Type of FU issued
system.cpu1.iq.FU_type_0::MemWrite            9574840      7.14%    100.00% # Type of FU issued
system.cpu1.iq.FU_type_0::FloatMemRead              0      0.00%    100.00% # Type of FU issued
system.cpu1.iq.FU_type_0::FloatMemWrite            12      0.00%    100.00% # Type of FU issued
system.cpu1.iq.FU_type_0::IprAccess                 0      0.00%    100.00% # Type of FU issued
system.cpu1.iq.FU_type_0::InstPrefetch              0      0.00%    100.00% # Type of FU issued
system.cpu1.iq.FU_type_0::total             134089072                       # Type of FU issued
system.cpu1.iq.fp_alu_accesses                     15                       # Number of floating point alu accesses
system.cpu1.iq.fp_inst_queue_reads                 27                       # Number of floating instruction queue reads
system.cpu1.iq.fp_inst_queue_wakeup_accesses           12                       # Number of floating instruction queue wakeup accesses
system.cpu1.iq.fp_inst_queue_writes                12                       # Number of floating instruction queue writes
system.cpu1.iq.fu_busy_cnt                    2607374                       # FU busy when requested
system.cpu1.iq.fu_busy_rate                  0.019445                       # FU busy rate (busy events/executed inst)
system.cpu1.iq.fu_full::No_OpClass                  0      0.00%      0.00% # attempts to use FU when none available
system.cpu1.iq.fu_full::IntAlu                 362477     13.90%     13.90% # attempts to use FU when none available
system.cpu1.iq.fu_full::IntMult                     0      0.00%     13.90% # attempts to use FU when none available
system.cpu1.iq.fu_full::IntDiv                      0      0.00%     13.90% # attempts to use FU when none available
system.cpu1.iq.fu_full::FloatAdd                    0      0.00%     13.90% # attempts to use FU when none available
system.cpu1.iq.fu_full::FloatCmp                    0      0.00%     13.90% # attempts to use FU when none available
system.cpu1.iq.fu_full::FloatCvt                    0      0.00%     13.90% # attempts to use FU when none available
system.cpu1.iq.fu_full::FloatMult                   0      0.00%     13.90% # attempts to use FU when none available
system.cpu1.iq.fu_full::FloatMultAcc                0      0.00%     13.90% # attempts to use FU when none available
system.cpu1.iq.fu_full::FloatDiv                    0      0.00%     13.90% # attempts to use FU when none available
system.cpu1.iq.fu_full::FloatMisc                   0      0.00%     13.90% # attempts to use FU when none available
system.cpu1.iq.fu_full::FloatSqrt                   0      0.00%     13.90% # attempts to use FU when none available
system.cpu1.iq.fu_full::SimdAdd                     0      0.00%     13.90% # attempts to use FU when none available
system.cpu1.iq.fu_full::SimdAddAcc                  0      0.00%     13.90% # attempts to use FU when none available
system.cpu1.iq.fu_full::SimdAlu                     0      0.00%     13.90% # attempts to use FU when none available
system.cpu1.iq.fu_full::SimdCmp                     0      0.00%     13.90% # attempts to use FU when none available
system.cpu1.iq.fu_full::SimdCvt                     0      0.00%     13.90% # attempts to use FU when none available
system.cpu1.iq.fu_full::SimdMisc                    0      0.00%     13.90% # attempts to use FU when none available
system.cpu1.iq.fu_full::SimdMult                    0      0.00%     13.90% # attempts to use FU when none available
system.cpu1.iq.fu_full::SimdMultAcc                 0      0.00%     13.90% # attempts to use FU when none available
system.cpu1.iq.fu_full::SimdShift                   0      0.00%     13.90% # attempts to use FU when none available
system.cpu1.iq.fu_full::SimdShiftAcc                0      0.00%     13.90% # attempts to use FU when none available
system.cpu1.iq.fu_full::SimdDiv                     0      0.00%     13.90% # attempts to use FU when none available
system.cpu1.iq.fu_full::SimdSqrt                    0      0.00%     13.90% # attempts to use FU when none available
system.cpu1.iq.fu_full::SimdFloatAdd                0      0.00%     13.90% # attempts to use FU when none available
system.cpu1.iq.fu_full::SimdFloatAlu                0      0.00%     13.90% # attempts to use FU when none available
system.cpu1.iq.fu_full::SimdFloatCmp                0      0.00%     13.90% # attempts to use FU when none available
system.cpu1.iq.fu_full::SimdFloatCvt                0      0.00%     13.90% # attempts to use FU when none available
system.cpu1.iq.fu_full::SimdFloatDiv                0      0.00%     13.90% # attempts to use FU when none available
system.cpu1.iq.fu_full::SimdFloatMisc               0      0.00%     13.90% # attempts to use FU when none available
system.cpu1.iq.fu_full::SimdFloatMult               0      0.00%     13.90% # attempts to use FU when none available
system.cpu1.iq.fu_full::SimdFloatMultAcc            0      0.00%     13.90% # attempts to use FU when none available
system.cpu1.iq.fu_full::SimdFloatSqrt               0      0.00%     13.90% # attempts to use FU when none available
system.cpu1.iq.fu_full::SimdReduceAdd               0      0.00%     13.90% # attempts to use FU when none available
system.cpu1.iq.fu_full::SimdReduceAlu               0      0.00%     13.90% # attempts to use FU when none available
system.cpu1.iq.fu_full::SimdReduceCmp               0      0.00%     13.90% # attempts to use FU when none available
system.cpu1.iq.fu_full::SimdFloatReduceAdd            0      0.00%     13.90% # attempts to use FU when none available
system.cpu1.iq.fu_full::SimdFloatReduceCmp            0      0.00%     13.90% # attempts to use FU when none available
system.cpu1.iq.fu_full::SimdAes                     0      0.00%     13.90% # attempts to use FU when none available
system.cpu1.iq.fu_full::SimdAesMix                  0      0.00%     13.90% # attempts to use FU when none available
system.cpu1.iq.fu_full::SimdSha1Hash                0      0.00%     13.90% # attempts to use FU when none available
system.cpu1.iq.fu_full::SimdSha1Hash2               0      0.00%     13.90% # attempts to use FU when none available
system.cpu1.iq.fu_full::SimdSha256Hash              0      0.00%     13.90% # attempts to use FU when none available
system.cpu1.iq.fu_full::SimdSha256Hash2             0      0.00%     13.90% # attempts to use FU when none available
system.cpu1.iq.fu_full::SimdShaSigma2               0      0.00%     13.90% # attempts to use FU when none available
system.cpu1.iq.fu_full::SimdShaSigma3               0      0.00%     13.90% # attempts to use FU when none available
system.cpu1.iq.fu_full::SimdPredAlu                 0      0.00%     13.90% # attempts to use FU when none available
system.cpu1.iq.fu_full::MemRead               1840631     70.59%     84.50% # attempts to use FU when none available
system.cpu1.iq.fu_full::MemWrite               404263     15.50%    100.00% # attempts to use FU when none available
[...]
system.mem_ctrls.bytesReadSys                   53440                       # Total read bytes from the system interface side
system.mem_ctrls.bytesWrittenSys                 5632                       # Total written bytes from the system interface side
system.mem_ctrls.avgRdBW                      2482.77                       # Average DRAM read bandwidth in MiByte/s
system.mem_ctrls.avgWrBW                       247.06                       # Average achieved write bandwidth in MiByte/s
system.mem_ctrls.avgRdBWSys                   2546.82                       # Average system read bandwidth in MiByte/s
system.mem_ctrls.avgWrBWSys                    268.41                       # Average system write bandwidth in MiByte/s
system.mem_ctrls.peakBW                      12800.00                       # Theoretical peak bandwidth in MiByte/s
system.mem_ctrls.busUtil                        21.33                       # Data bus utilization in percentage
system.mem_ctrls.busUtilRead                    19.40                       # Data bus utilization in percentage for reads
system.mem_ctrls.busUtilWrite                    1.93                       # Data bus utilization in percentage for writes
system.mem_ctrls.totGap                      20976500                       # Total gap between requests
system.mem_ctrls.avgGap                      22726.44                       # Average gap between requests
system.mem_ctrls.masterReadBytes::.cpu0.inst        12352                       # Per-master bytes read from memory
system.mem_ctrls.masterReadBytes::.cpu0.data         8896                       # Per-master bytes read from memory
system.mem_ctrls.masterReadBytes::.l2.prefetcher        30848                       # Per-master bytes read from memory
system.mem_ctrls.masterWriteBytes::.writebacks         5184                       # Per-master bytes write to memory
system.mem_ctrls.masterReadRate::.cpu0.inst 588667016.155935764313                       # Per-master bytes read from memory rate (Bytes/sec)
system.mem_ctrls.masterReadRate::.cpu0.data 423962255.158938229084                       # Per-master bytes read from memory rate (Bytes/sec)
system.mem_ctrls.masterReadRate::.l2.prefetcher 1470142496.306534051895                       # Per-master bytes read from memory rate (Bytes/sec)
system.mem_ctrls.masterWriteRate::.writebacks 247057141.495496362448                       # Per-master bytes write to memory rate (Bytes/sec)
system.mem_ctrls.masterReadAccesses::.cpu0.inst          193                       # Per-master read serviced memory accesses
system.mem_ctrls.masterReadAccesses::.cpu0.data          156                       # Per-master read serviced memory accesses
system.mem_ctrls.masterReadAccesses::.l2.prefetcher          486                       # Per-master read serviced memory accesses
system.mem_ctrls.masterWriteAccesses::.writebacks           88                       # Per-master write serviced memory accesses
system.mem_ctrls.masterReadTotalLat::.cpu0.inst      7960757                       # Per-master read total memory access latency
system.mem_ctrls.masterReadTotalLat::.cpu0.data      6229502                       # Per-master read total memory access latency
system.mem_ctrls.masterReadTotalLat::.l2.prefetcher     19715996                       # Per-master read total memory access latency
system.mem_ctrls.masterWriteTotalLat::.writebacks    439497500                       # Per-master write total memory access latency
system.mem_ctrls.masterReadAvgLat::.cpu0.inst     41247.45                       # Per-master read average memory access latency
system.mem_ctrls.masterReadAvgLat::.cpu0.data     39932.71                       # Per-master read average memory access latency
system.mem_ctrls.masterReadAvgLat::.l2.prefetcher     40567.89                       # Per-master read average memory access latency
system.mem_ctrls.masterWriteAvgLat::.writebacks   4994289.77                       # Per-master write average memory access latency
system.mem_ctrls.pageHitRate                    81.05                       # Row buffer hit rate, read and write combined
system.mem_ctrls.rank1.actEnergy               442680                       # Energy for activate commands per rank (pJ)
system.mem_ctrls.rank1.preEnergy               250470                       # Energy for precharge commands per rank (pJ)
system.mem_ctrls.rank1.readEnergy             2256240                       # Energy for read commands per rank (pJ)
system.mem_ctrls.rank1.writeEnergy             104400                       # Energy for write commands per rank (pJ)
system.mem_ctrls.rank1.refreshEnergy     1843920.000000                       # Energy for refresh commands per rank (pJ)
system.mem_ctrls.rank1.actBackEnergy          9043620                       # Energy for active background per rank (pJ)
system.mem_ctrls.rank1.preBackEnergy           442080                       # Energy for precharge background per rank (pJ)
system.mem_ctrls.rank1.actPowerDownEnergy            0                       # Energy for active power-down per rank (pJ)
system.mem_ctrls.rank1.prePowerDownEnergy            0                       # Energy for precharge power-down per rank (pJ)
system.mem_ctrls.rank1.selfRefreshEnergy            0                       # Energy for self refresh per rank (pJ)
system.mem_ctrls.rank1.totalEnergy           14383410                       # Total energy per rank (pJ)
system.mem_ctrls.rank1.averagePower        685.479197                       # Core power per rank (mW)
system.mem_ctrls.rank1.totalIdleTime                0                       # Total Idle time Per DRAM Rank
system.mem_ctrls.rank1.memoryStateTime::IDLE      1067750                       # Time in different power states
system.mem_ctrls.rank1.memoryStateTime::REF       780000                       # Time in different power states
system.mem_ctrls.rank1.memoryStateTime::SREF            0                       # Time in different power states
system.mem_ctrls.rank1.memoryStateTime::PRE_PDN            0                       # Time in different power states
system.mem_ctrls.rank1.memoryStateTime::ACT     19135250                       # Time in different power states
system.mem_ctrls.rank1.memoryStateTime::ACT_PDN            0                       # Time in different power states
system.mem_ctrls.rank0.actEnergy               756840                       # Energy for activate commands per rank (pJ)
system.mem_ctrls.rank0.preEnergy               409860                       # Energy for precharge commands per rank (pJ)
system.mem_ctrls.rank0.readEnergy             3541440                       # Energy for read commands per rank (pJ)
system.mem_ctrls.rank0.writeEnergy             318420                       # Energy for write commands per rank (pJ)
system.mem_ctrls.rank0.refreshEnergy     1843920.000000                       # Energy for refresh commands per rank (pJ)
system.mem_ctrls.rank0.actBackEnergy          9462570                       # Energy for active background per rank (pJ)
system.mem_ctrls.rank0.preBackEnergy            89280                       # Energy for precharge background per rank (pJ)
system.mem_ctrls.rank0.actPowerDownEnergy            0                       # Energy for active power-down per rank (pJ)
system.mem_ctrls.rank0.prePowerDownEnergy            0                       # Energy for precharge power-down per rank (pJ)
system.mem_ctrls.rank0.selfRefreshEnergy            0                       # Energy for self refresh per rank (pJ)
system.mem_ctrls.rank0.totalEnergy           16422330                       # Total energy per rank (pJ)
system.mem_ctrls.rank0.averagePower        782.649288                       # Core power per rank (mW)
system.mem_ctrls.rank0.totalIdleTime                0                       # Total Idle time Per DRAM Rank
system.mem_ctrls.rank0.memoryStateTime::IDLE       136250                       # Time in different power states
system.mem_ctrls.rank0.memoryStateTime::REF       780000                       # Time in different power states
system.mem_ctrls.rank0.memoryStateTime::SREF            0                       # Time in different power states
system.mem_ctrls.rank0.memoryStateTime::PRE_PDN            0                       # Time in different power states
system.mem_ctrls.rank0.memoryStateTime::ACT     20066750                       # Time in different power states
system.mem_ctrls.rank0.memoryStateTime::ACT_PDN            0                       # Time in different power states
system.cpu1.pwrStateClkGateDist::samples            1                       # Distribution of time spent in the clock gated state
system.cpu1.pwrStateClkGateDist::mean        20983000                       # Distribution of time spent in the clock gated state
system.cpu1.pwrStateClkGateDist::1000-5e+10            1    100.00%    100.00% # Distribution of time spent in the clock gated state
system.cpu1.pwrStateClkGateDist::min_value     20983000                       # Distribution of time spent in the clock gated state
system.cpu1.pwrStateClkGateDist::max_value     20983000                       # Distribution of time spent in the clock gated state
system.cpu1.pwrStateClkGateDist::total              1                       # Distribution of time spent in the clock gated state
system.cpu1.pwrStateResidencyTicks::CLK_GATED     20983000                       # Cumulative time (in ticks) in various power states
system.cpu1.icache.pwrStateResidencyTicks::UNDEFINED     20983000                       # Cumulative time (in ticks) in various power states
system.cpu1.icache.blocked_cycles::no_mshrs            0                       # number of cycles access was blocked
system.cpu1.icache.blocked_cycles::no_targets            0                       # number of cycles access was blocked
system.cpu1.icache.blocked::no_mshrs                0                       # number of cycles access was blocked
system.cpu1.icache.blocked::no_targets              0                       # number of cycles access was blocked
system.cpu1.icache.avg_blocked_cycles::no_mshrs          nan                       # average number of cycles each access was blocked
system.cpu1.icache.avg_blocked_cycles::no_targets          nan                       # average number of cycles each access was blocked
system.cpu1.icache.replacements                     0                       # number of replacements
system.cpu1.icache.tags.pwrStateResidencyTicks::UNDEFINED     20983000                       # Cumulative time (in ticks) in various power states
system.cpu1.icache.tags.tagsinuse                  32                       # Cycle average of tags in use
system.cpu1.icache.tags.total_refs             937708                       # Total number of references to valid blocks.
system.cpu1.icache.tags.sampled_refs               32                       # Sample count of references to valid blocks.
system.cpu1.icache.tags.avg_refs         29303.375000                       # Average number of references to valid blocks.
system.cpu1.icache.tags.warmup_cycle                0                       # Cycle when the warmup percentage was hit.
system.cpu1.icache.tags.occ_blocks::.cpu1.inst           32                       # Average occupied blocks per requestor
system.cpu1.icache.tags.occ_percent::.cpu1.inst            1                       # Average percentage of cache occupancy
system.cpu1.icache.tags.occ_percent::total            1                       # Average percentage of cache occupancy
system.cpu1.icache.tags.occ_task_id_blocks::1024           32                       # Occupied blocks per task id
system.cpu1.icache.tags.age_task_id_blocks_1024::1           18                       # Occupied blocks per task id
system.cpu1.icache.tags.age_task_id_blocks_1024::3            1                       # Occupied blocks per task id
system.cpu1.icache.tags.age_task_id_blocks_1024::4           13                       # Occupied blocks per task id
system.cpu1.icache.tags.occ_task_id_percent::1024            1                       # Percentage of cache occupancy per task id
system.cpu1.icache.tags.tag_accesses                0                       # Number of tag accesses
system.cpu1.icache.tags.data_accesses               0                       # Number of data accesses
system.cpu1.dcache.pwrStateResidencyTicks::UNDEFINED     20983000                       # Cumulative time (in ticks) in various power states
system.cpu1.dcache.blocked_cycles::no_mshrs            0                       # number of cycles access was blocked
system.cpu1.dcache.blocked_cycles::no_targets            0                       # number of cycles access was blocked
system.cpu1.dcache.blocked::no_mshrs                0                       # number of cycles access was blocked
system.cpu1.dcache.blocked::no_targets              0                       # number of cycles access was blocked
system.cpu1.dcache.avg_blocked_cycles::no_mshrs          nan                       # average number of cycles each access was blocked
system.cpu1.dcache.avg_blocked_cycles::no_targets          nan                       # average number of cycles each access was blocked
system.cpu1.dcache.replacements                     0                       # number of replacements
system.cpu1.dcache.tags.pwrStateResidencyTicks::UNDEFINED     20983000                       # Cumulative time (in ticks) in various power states
system.cpu1.dcache.tags.tagsinuse           27.601058                       # Cycle average of tags in use
system.cpu1.dcache.tags.total_refs               1588                       # Total number of references to valid blocks.
system.cpu1.dcache.tags.sampled_refs               31                       # Sample count of references to valid blocks.
system.cpu1.dcache.tags.avg_refs            51.225806                       # Average number of references to valid blocks.
system.cpu1.dcache.tags.warmup_cycle                0                       # Cycle when the warmup percentage was hit.
system.cpu1.dcache.tags.occ_blocks::.cpu1.data    27.601058                       # Average occupied blocks per requestor
system.cpu1.dcache.tags.occ_percent::.cpu1.data     0.862533                       # Average percentage of cache occupancy
system.cpu1.dcache.tags.occ_percent::total     0.862533                       # Average percentage of cache occupancy
system.cpu1.dcache.tags.occ_task_id_blocks::1024           27                       # Occupied blocks per task id
system.cpu1.dcache.tags.age_task_id_blocks_1024::1           27                       # Occupied blocks per task id
system.cpu1.dcache.tags.occ_task_id_percent::1024     0.843750                       # Percentage of cache occupancy per task id
system.cpu1.dcache.tags.tag_accesses                0                       # Number of tag accesses
system.cpu1.dcache.tags.data_accesses               0                       # Number of data accesses
system.cpu_clk_domain.clock                       500                       # Clock period in ticks
system.tol2bus.pwrStateResidencyTicks::UNDEFINED     20983000                       # Cumulative time (in ticks) in various power states
system.tol2bus.trans_dist::ReadResp               588                       # Transaction distribution
system.tol2bus.trans_dist::WritebackDirty          199                       # Transaction distribution
system.tol2bus.trans_dist::WritebackClean          503                       # Transaction distribution
system.tol2bus.trans_dist::CleanEvict            1130                       # Transaction distribution
system.tol2bus.trans_dist::HardPFReq              812                       # Transaction distribution
system.tol2bus.trans_dist::UpgradeReq               3                       # Transaction distribution
system.tol2bus.trans_dist::UpgradeResp              3                       # Transaction distribution
system.tol2bus.trans_dist::ReadExReq               27                       # Transaction distribution
system.tol2bus.trans_dist::ReadExResp              27                       # Transaction distribution
system.tol2bus.trans_dist::ReadCleanReq           363                       # Transaction distribution
system.tol2bus.trans_dist::ReadSharedReq          227                       # Transaction distribution
system.tol2bus.pkt_count_system.cpu0.icache.mem_side::system.l2.cpu_side         1085                       # Packet count per connected master and slave (bytes)
system.tol2bus.pkt_count_system.cpu0.dcache.mem_side::system.l2.cpu_side          765                       # Packet count per connected master and slave (bytes)
system.tol2bus.pkt_count::total                  1850                       # Packet count per connected master and slave (bytes)
system.tol2bus.pkt_size_system.cpu0.icache.mem_side::system.l2.cpu_side        46208                       # Cumulative packet size per connected master and slave (bytes)
system.tol2bus.pkt_size_system.cpu0.dcache.mem_side::system.l2.cpu_side        32384                       # Cumulative packet size per connected master and slave (bytes)
system.tol2bus.pkt_size::total                  78592                       # Cumulative packet size per connected master and slave (bytes)
system.tol2bus.snoops                            2032                       # Total snoops (count)
system.tol2bus.snoopTraffic                      5696                       # Total snoop traffic (bytes)
system.tol2bus.snoop_fanout::samples             2650                       # Request fanout histogram
system.tol2bus.snoop_fanout::mean            0.188302                       # Request fanout histogram
system.tol2bus.snoop_fanout::stdev           0.409880                       # Request fanout histogram
system.tol2bus.snoop_fanout::underflows             0      0.00%      0.00% # Request fanout histogram
system.tol2bus.snoop_fanout::0                   2171     81.92%     81.92% # Request fanout histogram
system.tol2bus.snoop_fanout::1                    459     17.32%     99.25% # Request fanout histogram
system.tol2bus.snoop_fanout::2                     20      0.75%    100.00% # Request fanout histogram
system.tol2bus.snoop_fanout::3                      0      0.00%    100.00% # Request fanout histogram
system.tol2bus.snoop_fanout::4                      0      0.00%    100.00% # Request fanout histogram
system.tol2bus.snoop_fanout::5                      0      0.00%    100.00% # Request fanout histogram
system.tol2bus.snoop_fanout::6                      0      0.00%    100.00% # Request fanout histogram
system.tol2bus.snoop_fanout::7                      0      0.00%    100.00% # Request fanout histogram
system.tol2bus.snoop_fanout::8                      0      0.00%    100.00% # Request fanout histogram
system.tol2bus.snoop_fanout::overflows              0      0.00%    100.00% # Request fanout histogram
system.tol2bus.snoop_fanout::min_value              0                       # Request fanout histogram
system.tol2bus.snoop_fanout::max_value              2                       # Request fanout histogram
system.tol2bus.snoop_fanout::total               2650                       # Request fanout histogram
system.tol2bus.reqLayer0.occupancy            1231000                       # Layer occupancy (ticks)
system.tol2bus.reqLayer0.utilization              5.9                       # Layer utilization (%)
system.tol2bus.respLayer1.occupancy            382500                       # Layer occupancy (ticks)
system.tol2bus.respLayer1.utilization             1.8                       # Layer utilization (%)
system.tol2bus.respLayer0.occupancy            541500                       # Layer occupancy (ticks)
system.tol2bus.respLayer0.utilization             2.6                       # Layer utilization (%)

---------- End Simulation Statistics   ----------
