
---------- Begin Simulation Statistics ----------
final_tick                               1063395604000                       # Number of ticks from beginning of simulation (restored from checkpoints and never reset)
host_inst_rate                                  56391                       # Simulator instruction rate (inst/s)
host_mem_usage                                 702992                       # Number of bytes of host memory used
host_op_rate                                    56576                       # Simulator op (including micro ops) rate (op/s)
host_seconds                                 19609.92                       # Real time elapsed on the host
host_tick_rate                               54227426                       # Simulator tick rate (ticks/s)
sim_freq                                 1000000000000                       # Frequency of simulated ticks
sim_insts                                  1105831487                       # Number of instructions simulated
sim_ops                                    1109456854                       # Number of ops (including micro ops) simulated
sim_seconds                                  1.063396                       # Number of seconds simulated
sim_ticks                                1063395604000                       # Number of ticks simulated
system.cpu0.branchPred.BTBCorrect                   0                       # Number of correct BTB predictions (this stat may not work properly.
system.cpu0.branchPred.BTBHitPct            87.363110                       # BTB Hit Percentage
system.cpu0.branchPred.BTBHits              146845049                       # Number of BTB hits
system.cpu0.branchPred.BTBLookups           168085876                       # Number of BTB lookups
system.cpu0.branchPred.RASInCorrect                 0                       # Number of incorrect RAS predictions.
system.cpu0.branchPred.condIncorrect         18126180                       # Number of conditional branches incorrect
system.cpu0.branchPred.condPredicted        227085925                       # Number of conditional branches predicted
system.cpu0.branchPred.indirectHits          18035403                       # Number of indirect target hits.
system.cpu0.branchPred.indirectLookups       18259692                       # Number of indirect predictor lookups.
system.cpu0.branchPred.indirectMisses          224289                       # Number of indirect misses.
system.cpu0.branchPred.lookups              287823847                       # Number of BP lookups
system.cpu0.branchPred.usedRAS                      0                       # Number of times the RAS was used to get a target.
system.cpu0.branchPredindirectMispredicted      1865207                       # Number of mispredicted indirect branches.
system.cpu0.commit.amos                       1811476                       # Number of atomic instructions committed
system.cpu0.commit.branchMispredicts         11149440                       # The number of times a branch was mispredicted
system.cpu0.commit.branches                 260686790                       # Number of branches committed
system.cpu0.commit.bw_lim_events             29213453                       # number cycles where commit BW limit reached
system.cpu0.commit.commitNonSpecStalls        5441395                       # The number of times commit has been forced to stall to communicate backwards
system.cpu0.commit.commitSquashedInsts       99113126                       # The number of squashed insts skipped by commit
system.cpu0.commit.committedInsts          1050758621                       # Number of instructions committed
system.cpu0.commit.committedOps            1052572615                       # Number of ops (including micro ops) committed
system.cpu0.commit.committed_per_cycle::samples   1962613485                       # Number of insts commited each cycle
system.cpu0.commit.committed_per_cycle::mean     0.536312                       # Number of insts commited each cycle
system.cpu0.commit.committed_per_cycle::stdev     1.290204                       # Number of insts commited each cycle
system.cpu0.commit.committed_per_cycle::underflows            0      0.00%      0.00% # Number of insts commited each cycle
system.cpu0.commit.committed_per_cycle::0   1442622914     73.51%     73.51% # Number of insts commited each cycle
system.cpu0.commit.committed_per_cycle::1    316697119     16.14%     89.64% # Number of insts commited each cycle
system.cpu0.commit.committed_per_cycle::2     75008323      3.82%     93.46% # Number of insts commited each cycle
system.cpu0.commit.committed_per_cycle::3     66084489      3.37%     96.83% # Number of insts commited each cycle
system.cpu0.commit.committed_per_cycle::4     20024746      1.02%     97.85% # Number of insts commited each cycle
system.cpu0.commit.committed_per_cycle::5      7508063      0.38%     98.23% # Number of insts commited each cycle
system.cpu0.commit.committed_per_cycle::6      1922186      0.10%     98.33% # Number of insts commited each cycle
system.cpu0.commit.committed_per_cycle::7      3532192      0.18%     98.51% # Number of insts commited each cycle
system.cpu0.commit.committed_per_cycle::8     29213453      1.49%    100.00% # Number of insts commited each cycle
system.cpu0.commit.committed_per_cycle::overflows            0      0.00%    100.00% # Number of insts commited each cycle
system.cpu0.commit.committed_per_cycle::min_value            0                       # Number of insts commited each cycle
system.cpu0.commit.committed_per_cycle::max_value            8                       # Number of insts commited each cycle
system.cpu0.commit.committed_per_cycle::total   1962613485                       # Number of insts commited each cycle
system.cpu0.commit.fp_insts                        46                       # Number of committed floating point instructions.
system.cpu0.commit.function_calls            20857656                       # Number of function calls committed.
system.cpu0.commit.int_insts               1015949921                       # Number of committed integer instructions.
system.cpu0.commit.loads                    326222075                       # Number of loads committed
system.cpu0.commit.membars                    3625351                       # Number of memory barriers committed
system.cpu0.commit.op_class_0::No_OpClass      3625357      0.34%      0.34% # Class of committed instruction
system.cpu0.commit.op_class_0::IntAlu       583917934     55.48%     55.82% # Class of committed instruction
system.cpu0.commit.op_class_0::IntMult        8030359      0.76%     56.58% # Class of committed instruction
system.cpu0.commit.op_class_0::IntDiv         1811037      0.17%     56.75% # Class of committed instruction
system.cpu0.commit.op_class_0::FloatAdd             0      0.00%     56.75% # Class of committed instruction
system.cpu0.commit.op_class_0::FloatCmp             4      0.00%     56.75% # Class of committed instruction
system.cpu0.commit.op_class_0::FloatCvt            12      0.00%     56.75% # Class of committed instruction
system.cpu0.commit.op_class_0::FloatMult            0      0.00%     56.75% # Class of committed instruction
system.cpu0.commit.op_class_0::FloatMultAcc            0      0.00%     56.75% # Class of committed instruction
system.cpu0.commit.op_class_0::FloatDiv             2      0.00%     56.75% # Class of committed instruction
system.cpu0.commit.op_class_0::FloatMisc            4      0.00%     56.75% # Class of committed instruction
system.cpu0.commit.op_class_0::FloatSqrt            0      0.00%     56.75% # Class of committed instruction
system.cpu0.commit.op_class_0::SimdAdd              0      0.00%     56.75% # Class of committed instruction
system.cpu0.commit.op_class_0::SimdAddAcc            0      0.00%     56.75% # Class of committed instruction
system.cpu0.commit.op_class_0::SimdAlu              0      0.00%     56.75% # Class of committed instruction
system.cpu0.commit.op_class_0::SimdCmp              0      0.00%     56.75% # Class of committed instruction
system.cpu0.commit.op_class_0::SimdCvt              0      0.00%     56.75% # Class of committed instruction
system.cpu0.commit.op_class_0::SimdMisc             0      0.00%     56.75% # Class of committed instruction
system.cpu0.commit.op_class_0::SimdMult             0      0.00%     56.75% # Class of committed instruction
system.cpu0.commit.op_class_0::SimdMultAcc            0      0.00%     56.75% # Class of committed instruction
system.cpu0.commit.op_class_0::SimdShift            0      0.00%     56.75% # Class of committed instruction
system.cpu0.commit.op_class_0::SimdShiftAcc            0      0.00%     56.75% # Class of committed instruction
system.cpu0.commit.op_class_0::SimdDiv              0      0.00%     56.75% # Class of committed instruction
system.cpu0.commit.op_class_0::SimdSqrt             0      0.00%     56.75% # Class of committed instruction
system.cpu0.commit.op_class_0::SimdFloatAdd            0      0.00%     56.75% # Class of committed instruction
system.cpu0.commit.op_class_0::SimdFloatAlu            0      0.00%     56.75% # Class of committed instruction
system.cpu0.commit.op_class_0::SimdFloatCmp            0      0.00%     56.75% # Class of committed instruction
system.cpu0.commit.op_class_0::SimdFloatCvt            0      0.00%     56.75% # Class of committed instruction
system.cpu0.commit.op_class_0::SimdFloatDiv            0      0.00%     56.75% # Class of committed instruction
system.cpu0.commit.op_class_0::SimdFloatMisc            0      0.00%     56.75% # Class of committed instruction
system.cpu0.commit.op_class_0::SimdFloatMult            0      0.00%     56.75% # Class of committed instruction
system.cpu0.commit.op_class_0::SimdFloatMultAcc            0      0.00%     56.75% # Class of committed instruction
system.cpu0.commit.op_class_0::SimdFloatSqrt            0      0.00%     56.75% # Class of committed instruction
system.cpu0.commit.op_class_0::SimdReduceAdd            0      0.00%     56.75% # Class of committed instruction
system.cpu0.commit.op_class_0::SimdReduceAlu            0      0.00%     56.75% # Class of committed instruction
system.cpu0.commit.op_class_0::SimdReduceCmp            0      0.00%     56.75% # Class of committed instruction
system.cpu0.commit.op_class_0::SimdFloatReduceAdd            0      0.00%     56.75% # Class of committed instruction
system.cpu0.commit.op_class_0::SimdFloatReduceCmp            0      0.00%     56.75% # Class of committed instruction
system.cpu0.commit.op_class_0::SimdAes              0      0.00%     56.75% # Class of committed instruction
system.cpu0.commit.op_class_0::SimdAesMix            0      0.00%     56.75% # Class of committed instruction
system.cpu0.commit.op_class_0::SimdSha1Hash            0      0.00%     56.75% # Class of committed instruction
system.cpu0.commit.op_class_0::SimdSha1Hash2            0      0.00%     56.75% # Class of committed instruction
system.cpu0.commit.op_class_0::SimdSha256Hash            0      0.00%     56.75% # Class of committed instruction
system.cpu0.commit.op_class_0::SimdSha256Hash2            0      0.00%     56.75% # Class of committed instruction
system.cpu0.commit.op_class_0::SimdShaSigma2            0      0.00%     56.75% # Class of committed instruction
system.cpu0.commit.op_class_0::SimdShaSigma3            0      0.00%     56.75% # Class of committed instruction
system.cpu0.commit.op_class_0::SimdPredAlu            0      0.00%     56.75% # Class of committed instruction
system.cpu0.commit.op_class_0::MemRead      328033543     31.16%     87.92% # Class of committed instruction
system.cpu0.commit.op_class_0::MemWrite     127154339     12.08%    100.00% # Class of committed instruction
system.cpu0.commit.op_class_0::FloatMemRead            8      0.00%    100.00% # Class of committed instruction
system.cpu0.commit.op_class_0::FloatMemWrite           16      0.00%    100.00% # Class of committed instruction
system.cpu0.commit.op_class_0::IprAccess            0      0.00%    100.00% # Class of committed instruction
system.cpu0.commit.op_class_0::InstPrefetch            0      0.00%    100.00% # Class of committed instruction
system.cpu0.commit.op_class_0::total       1052572615                       # Class of committed instruction
system.cpu0.commit.refs                     455187906                       # Number of memory references committed
system.cpu0.commit.swp_count                        0                       # Number of s/w prefetches committed
system.cpu0.commit.vec_insts                        0                       # Number of committed Vector instructions.
system.cpu0.committedInsts                 1050758621                       # Number of Instructions Simulated
system.cpu0.committedOps                   1052572615                       # Number of Ops (including micro ops) Simulated
system.cpu0.cpi                              2.021333                       # CPI: Cycles Per Instruction
system.cpu0.cpi_total                        2.021333                       # CPI: Total CPI of All Threads
system.cpu0.decode.BlockedCycles            319961965                       # Number of cycles decode is blocked
system.cpu0.decode.BranchMispred              7221981                       # Number of times decode detected a branch misprediction
system.cpu0.decode.BranchResolved           144965734                       # Number of times decode resolved a branch
system.cpu0.decode.DecodedInsts            1181977953                       # Number of instructions handled by decode
system.cpu0.decode.IdleCycles               829672828                       # Number of cycles decode is idle
system.cpu0.decode.RunCycles                817027292                       # Number of cycles decode is running
system.cpu0.decode.SquashCycles              11160961                       # Number of cycles decode is squashing
system.cpu0.decode.SquashedInsts             10159624                       # Number of squashed instructions handled by decode
system.cpu0.decode.UnblockCycles              4869022                       # Number of cycles decode is unblocking
system.cpu0.dtb.accesses                            0                       # DTB accesses
system.cpu0.dtb.hits                                0                       # DTB hits
system.cpu0.dtb.misses                              0                       # DTB misses
system.cpu0.dtb.read_accesses                       0                       # DTB read accesses
system.cpu0.dtb.read_hits                           0                       # DTB read hits
system.cpu0.dtb.read_misses                         0                       # DTB read misses
system.cpu0.dtb.write_accesses                      0                       # DTB write accesses
system.cpu0.dtb.write_hits                          0                       # DTB write hits
system.cpu0.dtb.write_misses                        0                       # DTB write misses
system.cpu0.fetch.Branches                  287823847                       # Number of branches that fetch encountered
system.cpu0.fetch.CacheLines                212357687                       # Number of cache lines fetched
system.cpu0.fetch.Cycles                   1147355418                       # Number of cycles fetch has run and was not squashing or blocked
system.cpu0.fetch.IcacheSquashes              5580656                       # Number of outstanding Icache misses that were squashed
system.cpu0.fetch.IcacheWaitRetryStallCycles          150                       # Number of stall cycles due to full MSHR
system.cpu0.fetch.Insts                    1214395774                       # Number of instructions fetch has processed
system.cpu0.fetch.MiscStallCycles                 108                       # Number of cycles fetch has spent waiting on interrupts, or bad addresses, or out of MSHRs
system.cpu0.fetch.PendingTrapStallCycles          108                       # Number of stall cycles due to pending traps
system.cpu0.fetch.SquashCycles               36275438                       # Number of cycles fetch has spent squashing
system.cpu0.fetch.branchRate                 0.135515                       # Number of branch fetches per cycle
system.cpu0.fetch.icacheStallCycles         817198565                       # Number of cycles fetch is stalled on an Icache miss
system.cpu0.fetch.predictedBranches         164880452                       # Number of branches that fetch has predicted taken
system.cpu0.fetch.rate                       0.571767                       # Number of inst fetches per cycle
system.cpu0.fetch.rateDist::samples        1982692068                       # Number of instructions fetched each cycle (Total)
system.cpu0.fetch.rateDist::mean             0.615588                       # Number of instructions fetched each cycle (Total)
system.cpu0.fetch.rateDist::stdev            0.907978                       # Number of instructions fetched each cycle (Total)
system.cpu0.fetch.rateDist::underflows              0      0.00%      0.00% # Number of instructions fetched each cycle (Total)
system.cpu0.fetch.rateDist::0              1124550303     56.72%     56.72% # Number of instructions fetched each cycle (Total)
system.cpu0.fetch.rateDist::1               630129877     31.78%     88.50% # Number of instructions fetched each cycle (Total)
system.cpu0.fetch.rateDist::2               137569558      6.94%     95.44% # Number of instructions fetched each cycle (Total)
system.cpu0.fetch.rateDist::3                69473546      3.50%     98.94% # Number of instructions fetched each cycle (Total)
system.cpu0.fetch.rateDist::4                 9502275      0.48%     99.42% # Number of instructions fetched each cycle (Total)
system.cpu0.fetch.rateDist::5                 5634194      0.28%     99.71% # Number of instructions fetched each cycle (Total)
system.cpu0.fetch.rateDist::6                 2095148      0.11%     99.81% # Number of instructions fetched each cycle (Total)
system.cpu0.fetch.rateDist::7                 1816548      0.09%     99.90% # Number of instructions fetched each cycle (Total)
system.cpu0.fetch.rateDist::8                 1920619      0.10%    100.00% # Number of instructions fetched each cycle (Total)
system.cpu0.fetch.rateDist::overflows               0      0.00%    100.00% # Number of instructions fetched each cycle (Total)
system.cpu0.fetch.rateDist::min_value               0                       # Number of instructions fetched each cycle (Total)
system.cpu0.fetch.rateDist::max_value               8                       # Number of instructions fetched each cycle (Total)
system.cpu0.fetch.rateDist::total          1982692068                       # Number of instructions fetched each cycle (Total)
system.cpu0.fp_regfile_reads                       40                       # number of floating regfile reads
system.cpu0.fp_regfile_writes                      57                       # number of floating regfile writes
system.cpu0.idleCycles                      141241100                       # Total number of cycles that the CPU has spent unscheduled due to idling
system.cpu0.iew.branchMispredicts            11257813                       # Number of branch mispredicts detected at execute
system.cpu0.iew.exec_branches               270205058                       # Number of branches executed
system.cpu0.iew.exec_nop                            0                       # number of nop insts executed
system.cpu0.iew.exec_rate                    0.519088                       # Inst execution rate
system.cpu0.iew.exec_refs                   480903449                       # number of memory reference insts executed
system.cpu0.iew.exec_stores                 132881697                       # Number of stores executed
system.cpu0.iew.exec_swp                            0                       # number of swp insts executed
system.cpu0.iew.iewBlockCycles              267053084                       # Number of cycles IEW is blocking
system.cpu0.iew.iewDispLoadInsts            363205162                       # Number of dispatched load instructions
system.cpu0.iew.iewDispNonSpecInsts           4333225                       # Number of dispatched non-speculative instructions
system.cpu0.iew.iewDispSquashedInsts          5452321                       # Number of squashed instructions skipped by dispatch
system.cpu0.iew.iewDispStoreInsts           140426226                       # Number of dispatched store instructions
system.cpu0.iew.iewDispatchedInsts         1151661298                       # Number of instructions dispatched to IQ
system.cpu0.iew.iewExecLoadInsts            348021752                       # Number of load instructions executed
system.cpu0.iew.iewExecSquashedInsts         10094356                       # Number of squashed instructions skipped in execute
system.cpu0.iew.iewExecutedInsts           1102507211                       # Number of executed instructions
system.cpu0.iew.iewIQFullEvents               2135369                       # Number of times the IQ has become full, causing a stall
system.cpu0.iew.iewIdleCycles                       0                       # Number of cycles IEW is idle
system.cpu0.iew.iewLSQFullEvents              5218660                       # Number of times the LSQ has become full, causing a stall
system.cpu0.iew.iewSquashCycles              11160961                       # Number of cycles IEW is squashing
system.cpu0.iew.iewUnblockCycles              9170003                       # Number of cycles IEW is unblocking
system.cpu0.iew.lsq.thread0.blockedLoads            0                       # Number of blocked loads due to partial load-store forwarding
system.cpu0.iew.lsq.thread0.cacheBlocked       107347                       # Number of times an access to memory failed due to the cache being blocked
system.cpu0.iew.lsq.thread0.forwLoads        15584978                       # Number of loads that had data forwarded from stores
system.cpu0.iew.lsq.thread0.ignoredResponses        46357                       # Number of memory responses ignored because the instruction is squashed
system.cpu0.iew.lsq.thread0.invAddrLoads            0                       # Number of loads ignored due to an invalid address
system.cpu0.iew.lsq.thread0.invAddrSwpfs            0                       # Number of software prefetches ignored due to an invalid address
system.cpu0.iew.lsq.thread0.memOrderViolation        12977                       # Number of memory ordering violations
system.cpu0.iew.lsq.thread0.rescheduledLoads      3853832                       # Number of loads that were rescheduled
system.cpu0.iew.lsq.thread0.squashedLoads     36983087                       # Number of loads squashed
system.cpu0.iew.lsq.thread0.squashedStores     11460395                       # Number of stores squashed
system.cpu0.iew.memOrderViolationEvents         12977                       # Number of memory order violations
system.cpu0.iew.predictedNotTakenIncorrect      1450045                       # Number of branches that were predicted not taken incorrectly
system.cpu0.iew.predictedTakenIncorrect       9807768                       # Number of branches that were predicted taken incorrectly
system.cpu0.iew.wb_consumers                455066309                       # num instructions consuming a value
system.cpu0.iew.wb_count                   1093226576                       # cumulative count of insts written-back
system.cpu0.iew.wb_fanout                    0.883980                       # average fanout of values written-back
system.cpu0.iew.wb_producers                402269698                       # num instructions producing a value
system.cpu0.iew.wb_rate                      0.514718                       # insts written-back per cycle
system.cpu0.iew.wb_sent                    1093311559                       # cumulative count of insts sent to commit
system.cpu0.int_regfile_reads              1349060056                       # number of integer regfile reads
system.cpu0.int_regfile_writes              698156199                       # number of integer regfile writes
system.cpu0.ipc                              0.494723                       # IPC: Instructions Per Cycle
system.cpu0.ipc_total                        0.494723                       # IPC: Total IPC of All Threads
system.cpu0.iq.FU_type_0::No_OpClass          3626939      0.33%      0.33% # Type of FU issued
system.cpu0.iq.FU_type_0::IntAlu            611836002     54.99%     55.32% # Type of FU issued
system.cpu0.iq.FU_type_0::IntMult             8034746      0.72%     56.04% # Type of FU issued
system.cpu0.iq.FU_type_0::IntDiv              1811540      0.16%     56.20% # Type of FU issued
system.cpu0.iq.FU_type_0::FloatAdd                  0      0.00%     56.20% # Type of FU issued
system.cpu0.iq.FU_type_0::FloatCmp                  4      0.00%     56.20% # Type of FU issued
system.cpu0.iq.FU_type_0::FloatCvt                 12      0.00%     56.20% # Type of FU issued
system.cpu0.iq.FU_type_0::FloatMult                 0      0.00%     56.20% # Type of FU issued
system.cpu0.iq.FU_type_0::FloatMultAcc              0      0.00%     56.20% # Type of FU issued
system.cpu0.iq.FU_type_0::FloatDiv                  2      0.00%     56.20% # Type of FU issued
system.cpu0.iq.FU_type_0::FloatMisc                 4      0.00%     56.20% # Type of FU issued
system.cpu0.iq.FU_type_0::FloatSqrt                 0      0.00%     56.20% # Type of FU issued
system.cpu0.iq.FU_type_0::SimdAdd                   0      0.00%     56.20% # Type of FU issued
system.cpu0.iq.FU_type_0::SimdAddAcc                0      0.00%     56.20% # Type of FU issued
system.cpu0.iq.FU_type_0::SimdAlu                   0      0.00%     56.20% # Type of FU issued
system.cpu0.iq.FU_type_0::SimdCmp                   0      0.00%     56.20% # Type of FU issued
system.cpu0.iq.FU_type_0::SimdCvt                   0      0.00%     56.20% # Type of FU issued
system.cpu0.iq.FU_type_0::SimdMisc                  0      0.00%     56.20% # Type of FU issued
system.cpu0.iq.FU_type_0::SimdMult                  0      0.00%     56.20% # Type of FU issued
system.cpu0.iq.FU_type_0::SimdMultAcc               0      0.00%     56.20% # Type of FU issued
system.cpu0.iq.FU_type_0::SimdShift                 0      0.00%     56.20% # Type of FU issued
system.cpu0.iq.FU_type_0::SimdShiftAcc              0      0.00%     56.20% # Type of FU issued
system.cpu0.iq.FU_type_0::SimdDiv                   0      0.00%     56.20% # Type of FU issued
system.cpu0.iq.FU_type_0::SimdSqrt                  0      0.00%     56.20% # Type of FU issued
system.cpu0.iq.FU_type_0::SimdFloatAdd              0      0.00%     56.20% # Type of FU issued
system.cpu0.iq.FU_type_0::SimdFloatAlu              0      0.00%     56.20% # Type of FU issued
system.cpu0.iq.FU_type_0::SimdFloatCmp              0      0.00%     56.20% # Type of FU issued
system.cpu0.iq.FU_type_0::SimdFloatCvt              0      0.00%     56.20% # Type of FU issued
system.cpu0.iq.FU_type_0::SimdFloatDiv              0      0.00%     56.20% # Type of FU issued
system.cpu0.iq.FU_type_0::SimdFloatMisc             0      0.00%     56.20% # Type of FU issued
system.cpu0.iq.FU_type_0::SimdFloatMult             0      0.00%     56.20% # Type of FU issued
system.cpu0.iq.FU_type_0::SimdFloatMultAcc            0      0.00%     56.20% # Type of FU issued
system.cpu0.iq.FU_type_0::SimdFloatSqrt             0      0.00%     56.20% # Type of FU issued
system.cpu0.iq.FU_type_0::SimdReduceAdd             0      0.00%     56.20% # Type of FU issued
system.cpu0.iq.FU_type_0::SimdReduceAlu             0      0.00%     56.20% # Type of FU issued
system.cpu0.iq.FU_type_0::SimdReduceCmp             0      0.00%     56.20% # Type of FU issued
system.cpu0.iq.FU_type_0::SimdFloatReduceAdd            0      0.00%     56.20% # Type of FU issued
system.cpu0.iq.FU_type_0::SimdFloatReduceCmp            0      0.00%     56.20% # Type of FU issued
system.cpu0.iq.FU_type_0::SimdAes                   0      0.00%     56.20% # Type of FU issued
system.cpu0.iq.FU_type_0::SimdAesMix                0      0.00%     56.20% # Type of FU issued
system.cpu0.iq.FU_type_0::SimdSha1Hash              0      0.00%     56.20% # Type of FU issued
system.cpu0.iq.FU_type_0::SimdSha1Hash2             0      0.00%     56.20% # Type of FU issued
system.cpu0.iq.FU_type_0::SimdSha256Hash            0      0.00%     56.20% # Type of FU issued
system.cpu0.iq.FU_type_0::SimdSha256Hash2            0      0.00%     56.20% # Type of FU issued
system.cpu0.iq.FU_type_0::SimdShaSigma2             0      0.00%     56.20% # Type of FU issued
system.cpu0.iq.FU_type_0::SimdShaSigma3             0      0.00%     56.20% # Type of FU issued
system.cpu0.iq.FU_type_0::SimdPredAlu               0      0.00%     56.20% # Type of FU issued
system.cpu0.iq.FU_type_0::MemRead           354575473     31.87%     88.07% # Type of FU issued
system.cpu0.iq.FU_type_0::MemWrite          132716752     11.93%    100.00% # Type of FU issued
system.cpu0.iq.FU_type_0::FloatMemRead             78      0.00%    100.00% # Type of FU issued
system.cpu0.iq.FU_type_0::FloatMemWrite            16      0.00%    100.00% # Type of FU issued
system.cpu0.iq.FU_type_0::IprAccess                 0      0.00%    100.00% # Type of FU issued
system.cpu0.iq.FU_type_0::InstPrefetch              0      0.00%    100.00% # Type of FU issued
system.cpu0.iq.FU_type_0::total            1112601568                       # Type of FU issued
system.cpu0.iq.fp_alu_accesses                    118                       # Number of floating point alu accesses
system.cpu0.iq.fp_inst_queue_reads                234                       # Number of floating instruction queue reads
system.cpu0.iq.fp_inst_queue_wakeup_accesses           81                       # Number of floating instruction queue wakeup accesses
system.cpu0.iq.fp_inst_queue_writes               284                       # Number of floating instruction queue writes
system.cpu0.iq.fu_busy_cnt                    2142309                       # FU busy when requested
system.cpu0.iq.fu_busy_rate                  0.001925                       # FU busy rate (busy events/executed inst)
system.cpu0.iq.fu_full::No_OpClass                  0      0.00%      0.00% # attempts to use FU when none available
system.cpu0.iq.fu_full::IntAlu                 379128     17.70%     17.70% # attempts to use FU when none available
system.cpu0.iq.fu_full::IntMult                     0      0.00%     17.70% # attempts to use FU when none available
system.cpu0.iq.fu_full::IntDiv                      0      0.00%     17.70% # attempts to use FU when none available
system.cpu0.iq.fu_full::FloatAdd                    0      0.00%     17.70% # attempts to use FU when none available
system.cpu0.iq.fu_full::FloatCmp                    0      0.00%     17.70% # attempts to use FU when none available
system.cpu0.iq.fu_full::FloatCvt                    0      0.00%     17.70% # attempts to use FU when none available
system.cpu0.iq.fu_full::FloatMult                   0      0.00%     17.70% # attempts to use FU when none available
system.cpu0.iq.fu_full::FloatMultAcc                0      0.00%     17.70% # attempts to use FU when none available
system.cpu0.iq.fu_full::FloatDiv                    0      0.00%     17.70% # attempts to use FU when none available
system.cpu0.iq.fu_full::FloatMisc                   0      0.00%     17.70% # attempts to use FU when none available
system.cpu0.iq.fu_full::FloatSqrt                   0      0.00%     17.70% # attempts to use FU when none available
system.cpu0.iq.fu_full::SimdAdd                     0      0.00%     17.70% # attempts to use FU when none available
system.cpu0.iq.fu_full::SimdAddAcc                  0      0.00%     17.70% # attempts to use FU when none available
system.cpu0.iq.fu_full::SimdAlu                     0      0.00%     17.70% # attempts to use FU when none available
system.cpu0.iq.fu_full::SimdCmp                     0      0.00%     17.70% # attempts to use FU when none available
system.cpu0.iq.fu_full::SimdCvt                     0      0.00%     17.70% # attempts to use FU when none available
system.cpu0.iq.fu_full::SimdMisc                    0      0.00%     17.70% # attempts to use FU when none available
system.cpu0.iq.fu_full::SimdMult                    0      0.00%     17.70% # attempts to use FU when none available
system.cpu0.iq.fu_full::SimdMultAcc                 0      0.00%     17.70% # attempts to use FU when none available
system.cpu0.iq.fu_full::SimdShift                   0      0.00%     17.70% # attempts to use FU when none available
system.cpu0.iq.fu_full::SimdShiftAcc                0      0.00%     17.70% # attempts to use FU when none available
system.cpu0.iq.fu_full::SimdDiv                     0      0.00%     17.70% # attempts to use FU when none available
system.cpu0.iq.fu_full::SimdSqrt                    0      0.00%     17.70% # attempts to use FU when none available
system.cpu0.iq.fu_full::SimdFloatAdd                0      0.00%     17.70% # attempts to use FU when none available
system.cpu0.iq.fu_full::SimdFloatAlu                0      0.00%     17.70% # attempts to use FU when none available
system.cpu0.iq.fu_full::SimdFloatCmp                0      0.00%     17.70% # attempts to use FU when none available
system.cpu0.iq.fu_full::SimdFloatCvt                0      0.00%     17.70% # attempts to use FU when none available
system.cpu0.iq.fu_full::SimdFloatDiv                0      0.00%     17.70% # attempts to use FU when none available
system.cpu0.iq.fu_full::SimdFloatMisc               0      0.00%     17.70% # attempts to use FU when none available
system.cpu0.iq.fu_full::SimdFloatMult               0      0.00%     17.70% # attempts to use FU when none available
system.cpu0.iq.fu_full::SimdFloatMultAcc            0      0.00%     17.70% # attempts to use FU when none available
system.cpu0.iq.fu_full::SimdFloatSqrt               0      0.00%     17.70% # attempts to use FU when none available
system.cpu0.iq.fu_full::SimdReduceAdd               0      0.00%     17.70% # attempts to use FU when none available
system.cpu0.iq.fu_full::SimdReduceAlu               0      0.00%     17.70% # attempts to use FU when none available
system.cpu0.iq.fu_full::SimdReduceCmp               0      0.00%     17.70% # attempts to use FU when none available
system.cpu0.iq.fu_full::SimdFloatReduceAdd            0      0.00%     17.70% # attempts to use FU when none available
system.cpu0.iq.fu_full::SimdFloatReduceCmp            0      0.00%     17.70% # attempts to use FU when none available
system.cpu0.iq.fu_full::SimdAes                     0      0.00%     17.70% # attempts to use FU when none available
system.cpu0.iq.fu_full::SimdAesMix                  0      0.00%     17.70% # attempts to use FU when none available
system.cpu0.iq.fu_full::SimdSha1Hash                0      0.00%     17.70% # attempts to use FU when none available
system.cpu0.iq.fu_full::SimdSha1Hash2               0      0.00%     17.70% # attempts to use FU when none available
system.cpu0.iq.fu_full::SimdSha256Hash              0      0.00%     17.70% # attempts to use FU when none available
system.cpu0.iq.fu_full::SimdSha256Hash2             0      0.00%     17.70% # attempts to use FU when none available
system.cpu0.iq.fu_full::SimdShaSigma2               0      0.00%     17.70% # attempts to use FU when none available
system.cpu0.iq.fu_full::SimdShaSigma3               0      0.00%     17.70% # attempts to use FU when none available
system.cpu0.iq.fu_full::SimdPredAlu                 0      0.00%     17.70% # attempts to use FU when none available
system.cpu0.iq.fu_full::MemRead               1606281     74.98%     92.68% # attempts to use FU when none available
system.cpu0.iq.fu_full::MemWrite               156898      7.32%    100.00% # attempts to use FU when none available
system.cpu0.iq.fu_full::FloatMemRead                0      0.00%    100.00% # attempts to use FU when none available
system.cpu0.iq.fu_full::FloatMemWrite               2      0.00%    100.00% # attempts to use FU when none available
system.cpu0.iq.fu_full::IprAccess                   0      0.00%    100.00% # attempts to use FU when none available
system.cpu0.iq.fu_full::InstPrefetch                0      0.00%    100.00% # attempts to use FU when none available
system.cpu0.iq.int_alu_accesses            1111116820                       # Number of integer alu accesses
system.cpu0.iq.int_inst_queue_reads        4210153853                       # Number of integer instruction queue reads
system.cpu0.iq.int_inst_queue_wakeup_accesses   1093226495                       # Number of integer instruction queue wakeup accesses
system.cpu0.iq.int_inst_queue_writes       1250761821                       # Number of integer instruction queue writes
system.cpu0.iq.iqInstsAdded                1138682396                       # Number of instructions added to the IQ (excludes non-spec)
system.cpu0.iq.iqInstsIssued               1112601568                       # Number of instructions issued
system.cpu0.iq.iqNonSpecInstsAdded           12978902                       # Number of non-speculative instructions added to the IQ
system.cpu0.iq.iqSquashedInstsExamined       99088679                       # Number of squashed instructions iterated over during squash; mainly for profiling
system.cpu0.iq.iqSquashedInstsIssued           116575                       # Number of squashed instructions issued
system.cpu0.iq.iqSquashedNonSpecRemoved       7537507                       # Number of squashed non-spec instructions that were removed
system.cpu0.iq.iqSquashedOperandsExamined     59950891                       # Number of squashed operands that are examined and possibly removed from graph
system.cpu0.iq.issued_per_cycle::samples   1982692068                       # Number of insts issued each cycle
system.cpu0.iq.issued_per_cycle::mean        0.561157                       # Number of insts issued each cycle
system.cpu0.iq.issued_per_cycle::stdev       0.793443                       # Number of insts issued each cycle
system.cpu0.iq.issued_per_cycle::underflows            0      0.00%      0.00% # Number of insts issued each cycle
system.cpu0.iq.issued_per_cycle::0         1170543918     59.04%     59.04% # Number of insts issued each cycle
system.cpu0.iq.issued_per_cycle::1          568688056     28.68%     87.72% # Number of insts issued each cycle
system.cpu0.iq.issued_per_cycle::2          201342334     10.15%     97.88% # Number of insts issued each cycle
system.cpu0.iq.issued_per_cycle::3           32531337      1.64%     99.52% # Number of insts issued each cycle
system.cpu0.iq.issued_per_cycle::4            5984832      0.30%     99.82% # Number of insts issued each cycle
system.cpu0.iq.issued_per_cycle::5            2446878      0.12%     99.94% # Number of insts issued each cycle
system.cpu0.iq.issued_per_cycle::6             765340      0.04%     99.98% # Number of insts issued each cycle
system.cpu0.iq.issued_per_cycle::7             245909      0.01%     99.99% # Number of insts issued each cycle
system.cpu0.iq.issued_per_cycle::8             143464      0.01%    100.00% # Number of insts issued each cycle
system.cpu0.iq.issued_per_cycle::overflows            0      0.00%    100.00% # Number of insts issued each cycle
system.cpu0.iq.issued_per_cycle::min_value            0                       # Number of insts issued each cycle
system.cpu0.iq.issued_per_cycle::max_value            8                       # Number of insts issued each cycle
system.cpu0.iq.issued_per_cycle::total     1982692068                       # Number of insts issued each cycle
system.cpu0.iq.rate                          0.523840                       # Inst issue rate
system.cpu0.iq.vec_alu_accesses                     0                       # Number of vector alu accesses
system.cpu0.iq.vec_inst_queue_reads                 0                       # Number of vector instruction queue reads
system.cpu0.iq.vec_inst_queue_wakeup_accesses            0                       # Number of vector instruction queue wakeup accesses
system.cpu0.iq.vec_inst_queue_writes                0                       # Number of vector instruction queue writes
system.cpu0.itb.accesses                            0                       # DTB accesses
system.cpu0.itb.hits                                0                       # DTB hits
system.cpu0.itb.misses                              0                       # DTB misses
system.cpu0.itb.read_accesses                       0                       # DTB read accesses
system.cpu0.itb.read_hits                           0                       # DTB read hits
system.cpu0.itb.read_misses                         0                       # DTB read misses
system.cpu0.itb.write_accesses                      0                       # DTB write accesses
system.cpu0.itb.write_hits                          0                       # DTB write hits
system.cpu0.itb.write_misses                        0                       # DTB write misses
system.cpu0.memDep0.conflictingLoads         29530043                       # Number of conflicting loads.
system.cpu0.memDep0.conflictingStores         5281248                       # Number of conflicting stores.
system.cpu0.memDep0.insertedLoads           363205162                       # Number of loads inserted to the mem dependence unit.
system.cpu0.memDep0.insertedStores          140426226                       # Number of stores inserted to the mem dependence unit.
system.cpu0.misc_regfile_reads                   1504                       # number of misc regfile reads
system.cpu0.misc_regfile_writes                    22                       # number of misc regfile writes
system.cpu0.numCycles                      2123933168                       # number of cpu cycles simulated
system.cpu0.numWorkItemsCompleted                   0                       # number of work items this cpu completed
system.cpu0.numWorkItemsStarted                     0                       # number of work items this cpu started
system.cpu0.quiesceCycles                     2858530                       # Total number of cycles that CPU has spent quiesced or waiting for an interrupt
system.cpu0.rename.BlockCycles              285516159                       # Number of cycles rename is blocking
system.cpu0.rename.CommittedMaps            670621269                       # Number of HB maps that are committed
system.cpu0.rename.IQFullEvents               7353741                       # Number of times rename has blocked due to IQ full
system.cpu0.rename.IdleCycles               845329017                       # Number of cycles rename is idle
system.cpu0.rename.LQFullEvents              12657836                       # Number of times rename has blocked due to LQ full
system.cpu0.rename.ROBFullEvents                68185                       # Number of times rename has blocked due to ROB full
system.cpu0.rename.RenameLookups           1426580751                       # Number of register rename lookups that rename has made
system.cpu0.rename.RenamedInsts            1167476685                       # Number of instructions processed by rename
system.cpu0.rename.RenamedOperands          750147645                       # Number of destination operands rename has renamed
system.cpu0.rename.RunCycles                804644615                       # Number of cycles rename is running
system.cpu0.rename.SQFullEvents              15161671                       # Number of times rename has blocked due to SQ full
system.cpu0.rename.SquashCycles              11160961                       # Number of cycles rename is squashing
system.cpu0.rename.UnblockCycles             35904578                       # Number of cycles rename is unblocking
system.cpu0.rename.UndoneMaps                79526368                       # Number of HB maps that are undone due to squashing
system.cpu0.rename.fp_rename_lookups               40                       # Number of floating rename lookups
system.cpu0.rename.int_rename_lookups      1426580711                       # Number of integer rename lookups
system.cpu0.rename.serializeStallCycles        136738                       # count of cycles rename stalled for serializing inst
system.cpu0.rename.serializingInsts              4719                       # count of serializing insts renamed
system.cpu0.rename.skidInsts                 17512570                       # count of insts added to the skid buffer
system.cpu0.rename.tempSerializingInsts          4715                       # count of temporary serializing insts renamed
system.cpu0.rob.rob_reads                  3085066702                       # The number of ROB reads
system.cpu0.rob.rob_writes                 2323466151                       # The number of ROB writes
system.cpu0.timesIdled                       26072581                       # Number of times that the entire CPU went into an idle state and unscheduled itself
system.cpu0.workload.numSyscalls                 1471                       # Number of system calls
system.cpu1.branchPred.BTBCorrect                   0                       # Number of correct BTB predictions (this stat may not work properly.
system.cpu1.branchPred.BTBHitPct            93.479453                       # BTB Hit Percentage
system.cpu1.branchPred.BTBHits               10022665                       # Number of BTB hits
system.cpu1.branchPred.BTBLookups            10721784                       # Number of BTB lookups
system.cpu1.branchPred.RASInCorrect                 0                       # Number of incorrect RAS predictions.
system.cpu1.branchPred.condIncorrect          2289280                       # Number of conditional branches incorrect
system.cpu1.branchPred.condPredicted         19102428                       # Number of conditional branches predicted
system.cpu1.branchPred.indirectHits            351754                       # Number of indirect target hits.
system.cpu1.branchPred.indirectLookups         647490                       # Number of indirect predictor lookups.
system.cpu1.branchPred.indirectMisses          295736                       # Number of indirect misses.
system.cpu1.branchPred.lookups               20971246                       # Number of BP lookups
system.cpu1.branchPred.usedRAS                      0                       # Number of times the RAS was used to get a target.
system.cpu1.branchPredindirectMispredicted         4853                       # Number of mispredicted indirect branches.
system.cpu1.commit.amos                       1811200                       # Number of atomic instructions committed
system.cpu1.commit.branchMispredicts          1311643                       # The number of times a branch was mispredicted
system.cpu1.commit.branches                  12201626                       # Number of branches committed
system.cpu1.commit.bw_lim_events              1174429                       # number cycles where commit BW limit reached
system.cpu1.commit.commitNonSpecStalls        5434262                       # The number of times commit has been forced to stall to communicate backwards
system.cpu1.commit.commitSquashedInsts       23625879                       # The number of squashed insts skipped by commit
system.cpu1.commit.committedInsts            55072866                       # Number of instructions committed
system.cpu1.commit.committedOps              56884239                       # Number of ops (including micro ops) committed
system.cpu1.commit.committed_per_cycle::samples    347749525                       # Number of insts commited each cycle
system.cpu1.commit.committed_per_cycle::mean     0.163578                       # Number of insts commited each cycle
system.cpu1.commit.committed_per_cycle::stdev     0.791743                       # Number of insts commited each cycle
system.cpu1.commit.committed_per_cycle::underflows            0      0.00%      0.00% # Number of insts commited each cycle
system.cpu1.commit.committed_per_cycle::0    323888754     93.14%     93.14% # Number of insts commited each cycle
system.cpu1.commit.committed_per_cycle::1     11932232      3.43%     96.57% # Number of insts commited each cycle
system.cpu1.commit.committed_per_cycle::2      3980879      1.14%     97.71% # Number of insts commited each cycle
system.cpu1.commit.committed_per_cycle::3      3614009      1.04%     98.75% # Number of insts commited each cycle
system.cpu1.commit.committed_per_cycle::4      1005051      0.29%     99.04% # Number of insts commited each cycle
system.cpu1.commit.committed_per_cycle::5       309812      0.09%     99.13% # Number of insts commited each cycle
system.cpu1.commit.committed_per_cycle::6      1726987      0.50%     99.63% # Number of insts commited each cycle
system.cpu1.commit.committed_per_cycle::7       117372      0.03%     99.66% # Number of insts commited each cycle
system.cpu1.commit.committed_per_cycle::8      1174429      0.34%    100.00% # Number of insts commited each cycle
system.cpu1.commit.committed_per_cycle::overflows            0      0.00%    100.00% # Number of insts commited each cycle
system.cpu1.commit.committed_per_cycle::min_value            0                       # Number of insts commited each cycle
system.cpu1.commit.committed_per_cycle::max_value            8                       # Number of insts commited each cycle
system.cpu1.commit.committed_per_cycle::total    347749525                       # Number of insts commited each cycle
system.cpu1.commit.fp_insts                        12                       # Number of committed floating point instructions.
system.cpu1.commit.function_calls              502336                       # Number of function calls committed.
system.cpu1.commit.int_insts                 52970170                       # Number of committed integer instructions.
system.cpu1.commit.loads                     16125276                       # Number of loads committed
system.cpu1.commit.membars                    3622518                       # Number of memory barriers committed
system.cpu1.commit.op_class_0::No_OpClass      3622518      6.37%      6.37% # Class of committed instruction
system.cpu1.commit.op_class_0::IntAlu        32008635     56.27%     62.64% # Class of committed instruction
system.cpu1.commit.op_class_0::IntMult             43      0.00%     62.64% # Class of committed instruction
system.cpu1.commit.op_class_0::IntDiv              86      0.00%     62.64% # Class of committed instruction
system.cpu1.commit.op_class_0::FloatAdd             0      0.00%     62.64% # Class of committed instruction
system.cpu1.commit.op_class_0::FloatCmp             0      0.00%     62.64% # Class of committed instruction
system.cpu1.commit.op_class_0::FloatCvt             0      0.00%     62.64% # Class of committed instruction
system.cpu1.commit.op_class_0::FloatMult            0      0.00%     62.64% # Class of committed instruction
system.cpu1.commit.op_class_0::FloatMultAcc            0      0.00%     62.64% # Class of committed instruction
system.cpu1.commit.op_class_0::FloatDiv             0      0.00%     62.64% # Class of committed instruction
system.cpu1.commit.op_class_0::FloatMisc            0      0.00%     62.64% # Class of committed instruction
system.cpu1.commit.op_class_0::FloatSqrt            0      0.00%     62.64% # Class of committed instruction
system.cpu1.commit.op_class_0::SimdAdd              0      0.00%     62.64% # Class of committed instruction
system.cpu1.commit.op_class_0::SimdAddAcc            0      0.00%     62.64% # Class of committed instruction
system.cpu1.commit.op_class_0::SimdAlu              0      0.00%     62.64% # Class of committed instruction
system.cpu1.commit.op_class_0::SimdCmp              0      0.00%     62.64% # Class of committed instruction
system.cpu1.commit.op_class_0::SimdCvt              0      0.00%     62.64% # Class of committed instruction
system.cpu1.commit.op_class_0::SimdMisc             0      0.00%     62.64% # Class of committed instruction
system.cpu1.commit.op_class_0::SimdMult             0      0.00%     62.64% # Class of committed instruction
system.cpu1.commit.op_class_0::SimdMultAcc            0      0.00%     62.64% # Class of committed instruction
system.cpu1.commit.op_class_0::SimdShift            0      0.00%     62.64% # Class of committed instruction
system.cpu1.commit.op_class_0::SimdShiftAcc            0      0.00%     62.64% # Class of committed instruction
system.cpu1.commit.op_class_0::SimdDiv              0      0.00%     62.64% # Class of committed instruction
system.cpu1.commit.op_class_0::SimdSqrt             0      0.00%     62.64% # Class of committed instruction
system.cpu1.commit.op_class_0::SimdFloatAdd            0      0.00%     62.64% # Class of committed instruction
system.cpu1.commit.op_class_0::SimdFloatAlu            0      0.00%     62.64% # Class of committed instruction
system.cpu1.commit.op_class_0::SimdFloatCmp            0      0.00%     62.64% # Class of committed instruction
system.cpu1.commit.op_class_0::SimdFloatCvt            0      0.00%     62.64% # Class of committed instruction
system.cpu1.commit.op_class_0::SimdFloatDiv            0      0.00%     62.64% # Class of committed instruction
system.cpu1.commit.op_class_0::SimdFloatMisc            0      0.00%     62.64% # Class of committed instruction
system.cpu1.commit.op_class_0::SimdFloatMult            0      0.00%     62.64% # Class of committed instruction
system.cpu1.commit.op_class_0::SimdFloatMultAcc            0      0.00%     62.64% # Class of committed instruction
system.cpu1.commit.op_class_0::SimdFloatSqrt            0      0.00%     62.64% # Class of committed instruction
system.cpu1.commit.op_class_0::SimdReduceAdd            0      0.00%     62.64% # Class of committed instruction
system.cpu1.commit.op_class_0::SimdReduceAlu            0      0.00%     62.64% # Class of committed instruction
system.cpu1.commit.op_class_0::SimdReduceCmp            0      0.00%     62.64% # Class of committed instruction
system.cpu1.commit.op_class_0::SimdFloatReduceAdd            0      0.00%     62.64% # Class of committed instruction
system.cpu1.commit.op_class_0::SimdFloatReduceCmp            0      0.00%     62.64% # Class of committed instruction
system.cpu1.commit.op_class_0::SimdAes              0      0.00%     62.64% # Class of committed instruction
system.cpu1.commit.op_class_0::SimdAesMix            0      0.00%     62.64% # Class of committed instruction
system.cpu1.commit.op_class_0::SimdSha1Hash            0      0.00%     62.64% # Class of committed instruction
system.cpu1.commit.op_class_0::SimdSha1Hash2            0      0.00%     62.64% # Class of committed instruction
system.cpu1.commit.op_class_0::SimdSha256Hash            0      0.00%     62.64% # Class of committed instruction
system.cpu1.commit.op_class_0::SimdSha256Hash2            0      0.00%     62.64% # Class of committed instruction
system.cpu1.commit.op_class_0::SimdShaSigma2            0      0.00%     62.64% # Class of committed instruction
system.cpu1.commit.op_class_0::SimdShaSigma3            0      0.00%     62.64% # Class of committed instruction
system.cpu1.commit.op_class_0::SimdPredAlu            0      0.00%     62.64% # Class of committed instruction
system.cpu1.commit.op_class_0::MemRead       17936476     31.53%     94.17% # Class of committed instruction
system.cpu1.commit.op_class_0::MemWrite       3316469      5.83%    100.00% # Class of committed instruction
system.cpu1.commit.op_class_0::FloatMemRead            0      0.00%    100.00% # Class of committed instruction
system.cpu1.commit.op_class_0::FloatMemWrite           12      0.00%    100.00% # Class of committed instruction
system.cpu1.commit.op_class_0::IprAccess            0      0.00%    100.00% # Class of committed instruction
system.cpu1.commit.op_class_0::InstPrefetch            0      0.00%    100.00% # Class of committed instruction
system.cpu1.commit.op_class_0::total         56884239                       # Class of committed instruction
system.cpu1.commit.refs                      21252957                       # Number of memory references committed
system.cpu1.commit.swp_count                        0                       # Number of s/w prefetches committed
system.cpu1.commit.vec_insts                        0                       # Number of committed Vector instructions.
system.cpu1.committedInsts                   55072866                       # Number of Instructions Simulated
system.cpu1.committedOps                     56884239                       # Number of Ops (including micro ops) Simulated
system.cpu1.cpi                              6.386724                       # CPI: Cycles Per Instruction
system.cpu1.cpi_total                        6.386724                       # CPI: Total CPI of All Threads
system.cpu1.decode.BlockedCycles            302819318                       # Number of cycles decode is blocked
system.cpu1.decode.BranchMispred               983650                       # Number of times decode detected a branch misprediction
system.cpu1.decode.BranchResolved             9045258                       # Number of times decode resolved a branch
system.cpu1.decode.DecodedInsts              89117285                       # Number of instructions handled by decode
system.cpu1.decode.IdleCycles                13227898                       # Number of cycles decode is idle
system.cpu1.decode.RunCycles                 29537583                       # Number of cycles decode is running
system.cpu1.decode.SquashCycles               1312152                       # Number of cycles decode is squashing
system.cpu1.decode.SquashedInsts              1369900                       # Number of squashed instructions handled by decode
system.cpu1.decode.UnblockCycles              4598217                       # Number of cycles decode is unblocking
system.cpu1.dtb.accesses                            0                       # DTB accesses
system.cpu1.dtb.hits                                0                       # DTB hits
system.cpu1.dtb.misses                              0                       # DTB misses
system.cpu1.dtb.read_accesses                       0                       # DTB read accesses
system.cpu1.dtb.read_hits                           0                       # DTB read hits
system.cpu1.dtb.read_misses                         0                       # DTB read misses
system.cpu1.dtb.write_accesses                      0                       # DTB write accesses
system.cpu1.dtb.write_hits                          0                       # DTB write hits
system.cpu1.dtb.write_misses                        0                       # DTB write misses
system.cpu1.fetch.Branches                   20971246                       # Number of branches that fetch encountered
system.cpu1.fetch.CacheLines                 13369128                       # Number of cache lines fetched
system.cpu1.fetch.Cycles                    334467831                       # Number of cycles fetch has run and was not squashing or blocked
system.cpu1.fetch.IcacheSquashes               149343                       # Number of outstanding Icache misses that were squashed
system.cpu1.fetch.IcacheWaitRetryStallCycles           16                       # Number of stall cycles due to full MSHR
system.cpu1.fetch.Insts                     103039127                       # Number of instructions fetch has processed
system.cpu1.fetch.MiscStallCycles                   2                       # Number of cycles fetch has spent waiting on interrupts, or bad addresses, or out of MSHRs
system.cpu1.fetch.SquashCycles                4579578                       # Number of cycles fetch has spent squashing
system.cpu1.fetch.branchRate                 0.059622                       # Number of branch fetches per cycle
system.cpu1.fetch.icacheStallCycles          14737530                       # Number of cycles fetch is stalled on an Icache miss
system.cpu1.fetch.predictedBranches          10374419                       # Number of branches that fetch has predicted taken
system.cpu1.fetch.rate                       0.292945                       # Number of inst fetches per cycle
system.cpu1.fetch.rateDist::samples         351495168                       # Number of instructions fetched each cycle (Total)
system.cpu1.fetch.rateDist::mean             0.304458                       # Number of instructions fetched each cycle (Total)
system.cpu1.fetch.rateDist::stdev            0.801560                       # Number of instructions fetched each cycle (Total)
system.cpu1.fetch.rateDist::underflows              0      0.00%      0.00% # Number of instructions fetched each cycle (Total)
system.cpu1.fetch.rateDist::0               291282410     82.87%     82.87% # Number of instructions fetched each cycle (Total)
system.cpu1.fetch.rateDist::1                32143244      9.14%     92.01% # Number of instructions fetched each cycle (Total)
system.cpu1.fetch.rateDist::2                16651513      4.74%     96.75% # Number of instructions fetched each cycle (Total)
system.cpu1.fetch.rateDist::3                 6487329      1.85%     98.60% # Number of instructions fetched each cycle (Total)
system.cpu1.fetch.rateDist::4                 2999568      0.85%     99.45% # Number of instructions fetched each cycle (Total)
system.cpu1.fetch.rateDist::5                 1484872      0.42%     99.87% # Number of instructions fetched each cycle (Total)
system.cpu1.fetch.rateDist::6                  442488      0.13%    100.00% # Number of instructions fetched each cycle (Total)
system.cpu1.fetch.rateDist::7                     147      0.00%    100.00% # Number of instructions fetched each cycle (Total)
system.cpu1.fetch.rateDist::8                    3597      0.00%    100.00% # Number of instructions fetched each cycle (Total)
system.cpu1.fetch.rateDist::overflows               0      0.00%    100.00% # Number of instructions fetched each cycle (Total)
system.cpu1.fetch.rateDist::min_value               0                       # Number of instructions fetched each cycle (Total)
system.cpu1.fetch.rateDist::max_value               8                       # Number of instructions fetched each cycle (Total)
system.cpu1.fetch.rateDist::total           351495168                       # Number of instructions fetched each cycle (Total)
system.cpu1.fp_regfile_reads                       12                       # number of floating regfile reads
system.cpu1.idleCycles                         240004                       # Total number of cycles that the CPU has spent unscheduled due to idling
system.cpu1.iew.branchMispredicts             1376491                       # Number of branch mispredicts detected at execute
system.cpu1.iew.exec_branches                14829571                       # Number of branches executed
system.cpu1.iew.exec_nop                            0                       # number of nop insts executed
system.cpu1.iew.exec_rate                    0.185420                       # Inst execution rate
system.cpu1.iew.exec_refs                    22609714                       # number of memory reference insts executed
system.cpu1.iew.exec_stores                   5224491                       # Number of stores executed
system.cpu1.iew.exec_swp                            0                       # number of swp insts executed
system.cpu1.iew.iewBlockCycles              260947705                       # Number of cycles IEW is blocking
system.cpu1.iew.iewDispLoadInsts             22806700                       # Number of dispatched load instructions
system.cpu1.iew.iewDispNonSpecInsts           2711822                       # Number of dispatched non-speculative instructions
system.cpu1.iew.iewDispSquashedInsts          1741439                       # Number of squashed instructions skipped by dispatch
system.cpu1.iew.iewDispStoreInsts             7105631                       # Number of dispatched store instructions
system.cpu1.iew.iewDispatchedInsts           80500168                       # Number of instructions dispatched to IQ
system.cpu1.iew.iewExecLoadInsts             17385223                       # Number of load instructions executed
system.cpu1.iew.iewExecSquashedInsts          1111804                       # Number of squashed instructions skipped in execute
system.cpu1.iew.iewExecutedInsts             65218823                       # Number of executed instructions
system.cpu1.iew.iewIQFullEvents               1597273                       # Number of times the IQ has become full, causing a stall
system.cpu1.iew.iewIdleCycles                       0                       # Number of cycles IEW is idle
system.cpu1.iew.iewLSQFullEvents              2556047                       # Number of times the LSQ has become full, causing a stall
system.cpu1.iew.iewSquashCycles               1312152                       # Number of cycles IEW is squashing
system.cpu1.iew.iewUnblockCycles              6093795                       # Number of cycles IEW is unblocking
system.cpu1.iew.lsq.thread0.blockedLoads            0                       # Number of blocked loads due to partial load-store forwarding
system.cpu1.iew.lsq.thread0.cacheBlocked        22706                       # Number of times an access to memory failed due to the cache being blocked
system.cpu1.iew.lsq.thread0.forwLoads          290478                       # Number of loads that had data forwarded from stores
system.cpu1.iew.lsq.thread0.ignoredResponses         8658                       # Number of memory responses ignored because the instruction is squashed
system.cpu1.iew.lsq.thread0.invAddrLoads            0                       # Number of loads ignored due to an invalid address
system.cpu1.iew.lsq.thread0.invAddrSwpfs            0                       # Number of software prefetches ignored due to an invalid address
system.cpu1.iew.lsq.thread0.memOrderViolation          559                       # Number of memory ordering violations
system.cpu1.iew.lsq.thread0.rescheduledLoads         2670                       # Number of loads that were rescheduled
system.cpu1.iew.lsq.thread0.squashedLoads      6681424                       # Number of loads squashed
system.cpu1.iew.lsq.thread0.squashedStores      1977950                       # Number of stores squashed
system.cpu1.iew.memOrderViolationEvents           559                       # Number of memory order violations
system.cpu1.iew.predictedNotTakenIncorrect       204771                       # Number of branches that were predicted not taken incorrectly
system.cpu1.iew.predictedTakenIncorrect       1171720                       # Number of branches that were predicted taken incorrectly
system.cpu1.iew.wb_consumers                 36896286                       # num instructions consuming a value
system.cpu1.iew.wb_count                     64734763                       # cumulative count of insts written-back
system.cpu1.iew.wb_fanout                    0.855613                       # average fanout of values written-back
system.cpu1.iew.wb_producers                 31568928                       # num instructions producing a value
system.cpu1.iew.wb_rate                      0.184044                       # insts written-back per cycle
system.cpu1.iew.wb_sent                      64751459                       # cumulative count of insts sent to commit
system.cpu1.int_regfile_reads                81365872                       # number of integer regfile reads
system.cpu1.int_regfile_writes               43170641                       # number of integer regfile writes
system.cpu1.ipc                              0.156575                       # IPC: Instructions Per Cycle
system.cpu1.ipc_total                        0.156575                       # IPC: Total IPC of All Threads
system.cpu1.iq.FU_type_0::No_OpClass          3622623      5.46%      5.46% # Type of FU issued
system.cpu1.iq.FU_type_0::IntAlu             39951673     60.23%     65.69% # Type of FU issued
system.cpu1.iq.FU_type_0::IntMult                  46      0.00%     65.69% # Type of FU issued
system.cpu1.iq.FU_type_0::IntDiv                   86      0.00%     65.69% # Type of FU issued
system.cpu1.iq.FU_type_0::FloatAdd                  0      0.00%     65.69% # Type of FU issued
system.cpu1.iq.FU_type_0::FloatCmp                  0      0.00%     65.69% # Type of FU issued
system.cpu1.iq.FU_type_0::FloatCvt                  0      0.00%     65.69% # Type of FU issued
system.cpu1.iq.FU_type_0::FloatMult                 0      0.00%     65.69% # Type of FU issued
system.cpu1.iq.FU_type_0::FloatMultAcc              0      0.00%     65.69% # Type of FU issued
system.cpu1.iq.FU_type_0::FloatDiv                  0      0.00%     65.69% # Type of FU issued
system.cpu1.iq.FU_type_0::FloatMisc                 0      0.00%     65.69% # Type of FU issued
system.cpu1.iq.FU_type_0::FloatSqrt                 0      0.00%     65.69% # Type of FU issued
system.cpu1.iq.FU_type_0::SimdAdd                   0      0.00%     65.69% # Type of FU issued
system.cpu1.iq.FU_type_0::SimdAddAcc                0      0.00%     65.69% # Type of FU issued
system.cpu1.iq.FU_type_0::SimdAlu                   0      0.00%     65.69% # Type of FU issued
system.cpu1.iq.FU_type_0::SimdCmp                   0      0.00%     65.69% # Type of FU issued
system.cpu1.iq.FU_type_0::SimdCvt                   0      0.00%     65.69% # Type of FU issued
system.cpu1.iq.FU_type_0::SimdMisc                  0      0.00%     65.69% # Type of FU issued
system.cpu1.iq.FU_type_0::SimdMult                  0      0.00%     65.69% # Type of FU issued
system.cpu1.iq.FU_type_0::SimdMultAcc               0      0.00%     65.69% # Type of FU issued
system.cpu1.iq.FU_type_0::SimdShift                 0      0.00%     65.69% # Type of FU issued
system.cpu1.iq.FU_type_0::SimdShiftAcc              0      0.00%     65.69% # Type of FU issued
system.cpu1.iq.FU_type_0::SimdDiv                   0      0.00%     65.69% # Type of FU issued
system.cpu1.iq.FU_type_0::SimdSqrt                  0      0.00%     65.69% # Type of FU issued
system.cpu1.iq.FU_type_0::SimdFloatAdd              0      0.00%     65.69% # Type of FU issued
system.cpu1.iq.FU_type_0::SimdFloatAlu              0      0.00%     65.69% # Type of FU issued
system.cpu1.iq.FU_type_0::SimdFloatCmp              0      0.00%     65.69% # Type of FU issued
system.cpu1.iq.FU_type_0::SimdFloatCvt              0      0.00%     65.69% # Type of FU issued
system.cpu1.iq.FU_type_0::SimdFloatDiv              0      0.00%     65.69% # Type of FU issued
system.cpu1.iq.FU_type_0::SimdFloatMisc             0      0.00%     65.69% # Type of FU issued
system.cpu1.iq.FU_type_0::SimdFloatMult             0      0.00%     65.69% # Type of FU issued
system.cpu1.iq.FU_type_0::SimdFloatMultAcc            0      0.00%     65.69% # Type of FU issued
system.cpu1.iq.FU_type_0::SimdFloatSqrt             0      0.00%     65.69% # Type of FU issued
system.cpu1.iq.FU_type_0::SimdReduceAdd             0      0.00%     65.69% # Type of FU issued
system.cpu1.iq.FU_type_0::SimdReduceAlu             0      0.00%     65.69% # Type of FU issued
system.cpu1.iq.FU_type_0::SimdReduceCmp             0      0.00%     65.69% # Type of FU issued
system.cpu1.iq.FU_type_0::SimdFloatReduceAdd            0      0.00%     65.69% # Type of FU issued
system.cpu1.iq.FU_type_0::SimdFloatReduceCmp            0      0.00%     65.69% # Type of FU issued
system.cpu1.iq.FU_type_0::SimdAes                   0      0.00%     65.69% # Type of FU issued
system.cpu1.iq.FU_type_0::SimdAesMix                0      0.00%     65.69% # Type of FU issued
system.cpu1.iq.FU_type_0::SimdSha1Hash              0      0.00%     65.69% # Type of FU issued
system.cpu1.iq.FU_type_0::SimdSha1Hash2             0      0.00%     65.69% # Type of FU issued
system.cpu1.iq.FU_type_0::SimdSha256Hash            0      0.00%     65.69% # Type of FU issued
system.cpu1.iq.FU_type_0::SimdSha256Hash2            0      0.00%     65.69% # Type of FU issued
system.cpu1.iq.FU_type_0::SimdShaSigma2             0      0.00%     65.69% # Type of FU issued
system.cpu1.iq.FU_type_0::SimdShaSigma3             0      0.00%     65.69% # Type of FU issued
system.cpu1.iq.FU_type_0::SimdPredAlu               0      0.00%     65.69% # Type of FU issued
system.cpu1.iq.FU_type_0::MemRead            19327966     29.14%     94.83% # Type of FU issued
system.cpu1.iq.FU_type_0::MemWrite            3428221      5.17%    100.00% # Type of FU issued
system.cpu1.iq.FU_type_0::FloatMemRead              0      0.00%    100.00% # Type of FU issued
system.cpu1.iq.FU_type_0::FloatMemWrite            12      0.00%    100.00% # Type of FU issued
system.cpu1.iq.FU_type_0::IprAccess                 0      0.00%    100.00% # Type of FU issued
system.cpu1.iq.FU_type_0::InstPrefetch              0      0.00%    100.00% # Type of FU issued
system.cpu1.iq.FU_type_0::total              66330627                       # Type of FU issued
system.cpu1.iq.fp_alu_accesses                     14                       # Number of floating point alu accesses
system.cpu1.iq.fp_inst_queue_reads                 26                       # Number of floating instruction queue reads
system.cpu1.iq.fp_inst_queue_wakeup_accesses           12                       # Number of floating instruction queue wakeup accesses
system.cpu1.iq.fp_inst_queue_writes                12                       # Number of floating instruction queue writes
system.cpu1.iq.fu_busy_cnt                    1902444                       # FU busy when requested
system.cpu1.iq.fu_busy_rate                  0.028681                       # FU busy rate (busy events/executed inst)
system.cpu1.iq.fu_full::No_OpClass                  0      0.00%      0.00% # attempts to use FU when none available
system.cpu1.iq.fu_full::IntAlu                 292234     15.36%     15.36% # attempts to use FU when none available
system.cpu1.iq.fu_full::IntMult                     0      0.00%     15.36% # attempts to use FU when none available
system.cpu1.iq.fu_full::IntDiv                      0      0.00%     15.36% # attempts to use FU when none available
system.cpu1.iq.fu_full::FloatAdd                    0      0.00%     15.36% # attempts to use FU when none available
system.cpu1.iq.fu_full::FloatCmp                    0      0.00%     15.36% # attempts to use FU when none available
system.cpu1.iq.fu_full::FloatCvt                    0      0.00%     15.36% # attempts to use FU when none available
system.cpu1.iq.fu_full::FloatMult                   0      0.00%     15.36% # attempts to use FU when none available
system.cpu1.iq.fu_full::FloatMultAcc                0      0.00%     15.36% # attempts to use FU when none available
system.cpu1.iq.fu_full::FloatDiv                    0      0.00%     15.36% # attempts to use FU when none available
system.cpu1.iq.fu_full::FloatMisc                   0      0.00%     15.36% # attempts to use FU when none available
system.cpu1.iq.fu_full::FloatSqrt                   0      0.00%     15.36% # attempts to use FU when none available
system.cpu1.iq.fu_full::SimdAdd                     0      0.00%     15.36% # attempts to use FU when none available
system.cpu1.iq.fu_full::SimdAddAcc                  0      0.00%     15.36% # attempts to use FU when none available
system.cpu1.iq.fu_full::SimdAlu                     0      0.00%     15.36% # attempts to use FU when none available
system.cpu1.iq.fu_full::SimdCmp                     0      0.00%     15.36% # attempts to use FU when none available
system.cpu1.iq.fu_full::SimdCvt                     0      0.00%     15.36% # attempts to use FU when none available
system.cpu1.iq.fu_full::SimdMisc                    0      0.00%     15.36% # attempts to use FU when none available
system.cpu1.iq.fu_full::SimdMult                    0      0.00%     15.36% # attempts to use FU when none available
system.cpu1.iq.fu_full::SimdMultAcc                 0      0.00%     15.36% # attempts to use FU when none available
system.cpu1.iq.fu_full::SimdShift                   0      0.00%     15.36% # attempts to use FU when none available
system.cpu1.iq.fu_full::SimdShiftAcc                0      0.00%     15.36% # attempts to use FU when none available
system.cpu1.iq.fu_full::SimdDiv                     0      0.00%     15.36% # attempts to use FU when none available
system.cpu1.iq.fu_full::SimdSqrt                    0      0.00%     15.36% # attempts to use FU when none available
system.cpu1.iq.fu_full::SimdFloatAdd                0      0.00%     15.36% # attempts to use FU when none available
system.cpu1.iq.fu_full::SimdFloatAlu                0      0.00%     15.36% # attempts to use FU when none available
system.cpu1.iq.fu_full::SimdFloatCmp                0      0.00%     15.36% # attempts to use FU when none available
system.cpu1.iq.fu_full::SimdFloatCvt                0      0.00%     15.36% # attempts to use FU when none available
system.cpu1.iq.fu_full::SimdFloatDiv                0      0.00%     15.36% # attempts to use FU when none available
system.cpu1.iq.fu_full::SimdFloatMisc               0      0.00%     15.36% # attempts to use FU when none available
system.cpu1.iq.fu_full::SimdFloatMult               0      0.00%     15.36% # attempts to use FU when none available
system.cpu1.iq.fu_full::SimdFloatMultAcc            0      0.00%     15.36% # attempts to use FU when none available
system.cpu1.iq.fu_full::SimdFloatSqrt               0      0.00%     15.36% # attempts to use FU when none available
system.cpu1.iq.fu_full::SimdReduceAdd               0      0.00%     15.36% # attempts to use FU when none available
system.cpu1.iq.fu_full::SimdReduceAlu               0      0.00%     15.36% # attempts to use FU when none available
system.cpu1.iq.fu_full::SimdReduceCmp               0      0.00%     15.36% # attempts to use FU when none available
system.cpu1.iq.fu_full::SimdFloatReduceAdd            0      0.00%     15.36% # attempts to use FU when none available
system.cpu1.iq.fu_full::SimdFloatReduceCmp            0      0.00%     15.36% # attempts to use FU when none available
system.cpu1.iq.fu_full::SimdAes                     0      0.00%     15.36% # attempts to use FU when none available
system.cpu1.iq.fu_full::SimdAesMix                  0      0.00%     15.36% # attempts to use FU when none available
system.cpu1.iq.fu_full::SimdSha1Hash                0      0.00%     15.36% # attempts to use FU when none available
system.cpu1.iq.fu_full::SimdSha1Hash2               0      0.00%     15.36% # attempts to use FU when none available
system.cpu1.iq.fu_full::SimdSha256Hash              0      0.00%     15.36% # attempts to use FU when none available
system.cpu1.iq.fu_full::SimdSha256Hash2             0      0.00%     15.36% # attempts to use FU when none available
system.cpu1.iq.fu_full::SimdShaSigma2               0      0.00%     15.36% # attempts to use FU when none available
system.cpu1.iq.fu_full::SimdShaSigma3               0      0.00%     15.36% # attempts to use FU when none available
system.cpu1.iq.fu_full::SimdPredAlu                 0      0.00%     15.36% # attempts to use FU when none available
system.cpu1.iq.fu_full::MemRead               1449222     76.18%     91.54% # attempts to use FU when none available
[...]
system.cpu1.dcache.ReadReq_avg_mshr_miss_latency::.cpu1.data 100450.654755                       # average ReadReq mshr miss latency
system.cpu1.dcache.ReadReq_avg_mshr_miss_latency::total 100450.654755                       # average ReadReq mshr miss latency
system.cpu1.dcache.WriteReq_hits::.cpu1.data       975880                       # number of WriteReq hits
system.cpu1.dcache.WriteReq_hits::total        975880                       # number of WriteReq hits
system.cpu1.dcache.WriteReq_misses::.cpu1.data       399200                       # number of WriteReq misses
system.cpu1.dcache.WriteReq_misses::total       399200                       # number of WriteReq misses
system.cpu1.dcache.WriteReq_miss_latency::.cpu1.data  25588216764                       # number of WriteReq miss cycles
system.cpu1.dcache.WriteReq_miss_latency::total  25588216764                       # number of WriteReq miss cycles
system.cpu1.dcache.WriteReq_accesses::.cpu1.data      1375080                       # number of WriteReq accesses(hits+misses)
system.cpu1.dcache.WriteReq_accesses::total      1375080                       # number of WriteReq accesses(hits+misses)
system.cpu1.dcache.WriteReq_miss_rate::.cpu1.data     0.290310                       # miss rate for WriteReq accesses
system.cpu1.dcache.WriteReq_miss_rate::total     0.290310                       # miss rate for WriteReq accesses
system.cpu1.dcache.WriteReq_avg_miss_latency::.cpu1.data 64098.739389                       # average WriteReq miss latency
system.cpu1.dcache.WriteReq_avg_miss_latency::total 64098.739389                       # average WriteReq miss latency
system.cpu1.dcache.WriteReq_mshr_hits::.cpu1.data       356671                       # number of WriteReq MSHR hits
system.cpu1.dcache.WriteReq_mshr_hits::total       356671                       # number of WriteReq MSHR hits
system.cpu1.dcache.WriteReq_mshr_misses::.cpu1.data        42529                       # number of WriteReq MSHR misses
system.cpu1.dcache.WriteReq_mshr_misses::total        42529                       # number of WriteReq MSHR misses
system.cpu1.dcache.WriteReq_mshr_miss_latency::.cpu1.data   2438741819                       # number of WriteReq MSHR miss cycles
system.cpu1.dcache.WriteReq_mshr_miss_latency::total   2438741819                       # number of WriteReq MSHR miss cycles
system.cpu1.dcache.WriteReq_mshr_miss_rate::.cpu1.data     0.030928                       # mshr miss rate for WriteReq accesses
system.cpu1.dcache.WriteReq_mshr_miss_rate::total     0.030928                       # mshr miss rate for WriteReq accesses
system.cpu1.dcache.WriteReq_avg_mshr_miss_latency::.cpu1.data 57343.032260                       # average WriteReq mshr miss latency
system.cpu1.dcache.WriteReq_avg_mshr_miss_latency::total 57343.032260                       # average WriteReq mshr miss latency
system.cpu1.dcache.LoadLockedReq_hits::.cpu1.data          674                       # number of LoadLockedReq hits
system.cpu1.dcache.LoadLockedReq_hits::total          674                       # number of LoadLockedReq hits
system.cpu1.dcache.LoadLockedReq_misses::.cpu1.data          152                       # number of LoadLockedReq misses
system.cpu1.dcache.LoadLockedReq_misses::total          152                       # number of LoadLockedReq misses
system.cpu1.dcache.LoadLockedReq_miss_latency::.cpu1.data     12263000                       # number of LoadLockedReq miss cycles
system.cpu1.dcache.LoadLockedReq_miss_latency::total     12263000                       # number of LoadLockedReq miss cycles
system.cpu1.dcache.LoadLockedReq_accesses::.cpu1.data          826                       # number of LoadLockedReq accesses(hits+misses)
system.cpu1.dcache.LoadLockedReq_accesses::total          826                       # number of LoadLockedReq accesses(hits+misses)
system.cpu1.dcache.LoadLockedReq_miss_rate::.cpu1.data     0.184019                       # miss rate for LoadLockedReq accesses
system.cpu1.dcache.LoadLockedReq_miss_rate::total     0.184019                       # miss rate for LoadLockedReq accesses
system.cpu1.dcache.LoadLockedReq_avg_miss_latency::.cpu1.data 80677.631579                       # average LoadLockedReq miss latency
system.cpu1.dcache.LoadLockedReq_avg_miss_latency::total 80677.631579                       # average LoadLockedReq miss latency
system.cpu1.dcache.LoadLockedReq_mshr_hits::.cpu1.data           67                       # number of LoadLockedReq MSHR hits
system.cpu1.dcache.LoadLockedReq_mshr_hits::total           67                       # number of LoadLockedReq MSHR hits
system.cpu1.dcache.LoadLockedReq_mshr_misses::.cpu1.data           85                       # number of LoadLockedReq MSHR misses
system.cpu1.dcache.LoadLockedReq_mshr_misses::total           85                       # number of LoadLockedReq MSHR misses
system.cpu1.dcache.LoadLockedReq_mshr_miss_latency::.cpu1.data      6574000                       # number of LoadLockedReq MSHR miss cycles
system.cpu1.dcache.LoadLockedReq_mshr_miss_latency::total      6574000                       # number of LoadLockedReq MSHR miss cycles
system.cpu1.dcache.LoadLockedReq_mshr_miss_rate::.cpu1.data     0.102906                       # mshr miss rate for LoadLockedReq accesses
system.cpu1.dcache.LoadLockedReq_mshr_miss_rate::total     0.102906                       # mshr miss rate for LoadLockedReq accesses
system.cpu1.dcache.LoadLockedReq_avg_mshr_miss_latency::.cpu1.data 77341.176471                       # average LoadLockedReq mshr miss latency
system.cpu1.dcache.LoadLockedReq_avg_mshr_miss_latency::total 77341.176471                       # average LoadLockedReq mshr miss latency
system.cpu1.dcache.StoreCondReq_hits::.cpu1.data          594                       # number of StoreCondReq hits
system.cpu1.dcache.StoreCondReq_hits::total          594                       # number of StoreCondReq hits
system.cpu1.dcache.StoreCondReq_misses::.cpu1.data          205                       # number of StoreCondReq misses
system.cpu1.dcache.StoreCondReq_misses::total          205                       # number of StoreCondReq misses
system.cpu1.dcache.StoreCondReq_miss_latency::.cpu1.data      1471500                       # number of StoreCondReq miss cycles
system.cpu1.dcache.StoreCondReq_miss_latency::total      1471500                       # number of StoreCondReq miss cycles
system.cpu1.dcache.StoreCondReq_accesses::.cpu1.data          799                       # number of StoreCondReq accesses(hits+misses)
system.cpu1.dcache.StoreCondReq_accesses::total          799                       # number of StoreCondReq accesses(hits+misses)
system.cpu1.dcache.StoreCondReq_miss_rate::.cpu1.data     0.256571                       # miss rate for StoreCondReq accesses
system.cpu1.dcache.StoreCondReq_miss_rate::total     0.256571                       # miss rate for StoreCondReq accesses
system.cpu1.dcache.StoreCondReq_avg_miss_latency::.cpu1.data  7178.048780                       # average StoreCondReq miss latency
system.cpu1.dcache.StoreCondReq_avg_miss_latency::total  7178.048780                       # average StoreCondReq miss latency
system.cpu1.dcache.StoreCondReq_mshr_misses::.cpu1.data          205                       # number of StoreCondReq MSHR misses
system.cpu1.dcache.StoreCondReq_mshr_misses::total          205                       # number of StoreCondReq MSHR misses
system.cpu1.dcache.StoreCondReq_mshr_miss_latency::.cpu1.data      1267500                       # number of StoreCondReq MSHR miss cycles
system.cpu1.dcache.StoreCondReq_mshr_miss_latency::total      1267500                       # number of StoreCondReq MSHR miss cycles
system.cpu1.dcache.StoreCondReq_mshr_miss_rate::.cpu1.data     0.256571                       # mshr miss rate for StoreCondReq accesses
system.cpu1.dcache.StoreCondReq_mshr_miss_rate::total     0.256571                       # mshr miss rate for StoreCondReq accesses
system.cpu1.dcache.StoreCondReq_avg_mshr_miss_latency::.cpu1.data  6182.926829                       # average StoreCondReq mshr miss latency
system.cpu1.dcache.StoreCondReq_avg_mshr_miss_latency::total  6182.926829                       # average StoreCondReq mshr miss latency
system.cpu1.dcache.StoreCondFailReq_miss_latency::.cpu1.data        15500                       # number of StoreCondFailReq miss cycles
system.cpu1.dcache.StoreCondFailReq_miss_latency::total        15500                       # number of StoreCondFailReq miss cycles
system.cpu1.dcache.StoreCondFailReq_avg_miss_latency::.cpu1.data          inf                       # average StoreCondFailReq miss latency
system.cpu1.dcache.StoreCondFailReq_avg_miss_latency::total          inf                       # average StoreCondFailReq miss latency
system.cpu1.dcache.StoreCondFailReq_mshr_miss_latency::.cpu1.data        14500                       # number of StoreCondFailReq MSHR miss cycles
system.cpu1.dcache.StoreCondFailReq_mshr_miss_latency::total        14500                       # number of StoreCondFailReq MSHR miss cycles
system.cpu1.dcache.StoreCondFailReq_avg_mshr_miss_latency::.cpu1.data          inf                       # average StoreCondFailReq mshr miss latency
system.cpu1.dcache.StoreCondFailReq_avg_mshr_miss_latency::total          inf                       # average StoreCondFailReq mshr miss latency
system.cpu1.dcache.SwapReq_hits::.cpu1.data          309                       # number of SwapReq hits
system.cpu1.dcache.SwapReq_hits::total            309                       # number of SwapReq hits
system.cpu1.dcache.SwapReq_misses::.cpu1.data          153                       # number of SwapReq misses
system.cpu1.dcache.SwapReq_misses::total          153                       # number of SwapReq misses
system.cpu1.dcache.SwapReq_miss_latency::.cpu1.data       797000                       # number of SwapReq miss cycles
system.cpu1.dcache.SwapReq_miss_latency::total       797000                       # number of SwapReq miss cycles
system.cpu1.dcache.SwapReq_accesses::.cpu1.data          462                       # number of SwapReq accesses(hits+misses)
system.cpu1.dcache.SwapReq_accesses::total          462                       # number of SwapReq accesses(hits+misses)
system.cpu1.dcache.SwapReq_miss_rate::.cpu1.data     0.331169                       # miss rate for SwapReq accesses
system.cpu1.dcache.SwapReq_miss_rate::total     0.331169                       # miss rate for SwapReq accesses
system.cpu1.dcache.SwapReq_avg_miss_latency::.cpu1.data  5209.150327                       # average SwapReq miss latency
system.cpu1.dcache.SwapReq_avg_miss_latency::total  5209.150327                       # average SwapReq miss latency
system.cpu1.dcache.SwapReq_mshr_misses::.cpu1.data          153                       # number of SwapReq MSHR misses
system.cpu1.dcache.SwapReq_mshr_misses::total          153                       # number of SwapReq MSHR misses
system.cpu1.dcache.SwapReq_mshr_miss_latency::.cpu1.data       644000                       # number of SwapReq MSHR miss cycles
system.cpu1.dcache.SwapReq_mshr_miss_latency::total       644000                       # number of SwapReq MSHR miss cycles
system.cpu1.dcache.SwapReq_mshr_miss_rate::.cpu1.data     0.331169                       # mshr miss rate for SwapReq accesses
system.cpu1.dcache.SwapReq_mshr_miss_rate::total     0.331169                       # mshr miss rate for SwapReq accesses
system.cpu1.dcache.SwapReq_avg_mshr_miss_latency::.cpu1.data  4209.150327                       # average SwapReq mshr miss latency
system.cpu1.dcache.SwapReq_avg_mshr_miss_latency::total  4209.150327                       # average SwapReq mshr miss latency
system.cpu1.dcache.tags.pwrStateResidencyTicks::UNDEFINED 584797333000                       # Cumulative time (in ticks) in various power states
system.cpu1.dcache.tags.tagsinuse           31.980546                       # Cycle average of tags in use
system.cpu1.dcache.tags.total_refs           18173020                       # Total number of references to valid blocks.
system.cpu1.dcache.tags.sampled_refs          2044748                       # Sample count of references to valid blocks.
system.cpu1.dcache.tags.avg_refs             8.887658                       # Average number of references to valid blocks.
system.cpu1.dcache.tags.warmup_cycle                0                       # Cycle when the warmup percentage was hit.
system.cpu1.dcache.tags.occ_blocks::.cpu1.data    31.980546                       # Average occupied blocks per requestor
system.cpu1.dcache.tags.occ_percent::.cpu1.data     0.999392                       # Average percentage of cache occupancy
system.cpu1.dcache.tags.occ_percent::total     0.999392                       # Average percentage of cache occupancy
system.cpu1.dcache.tags.occ_task_id_blocks::1024           29                       # Occupied blocks per task id
system.cpu1.dcache.tags.age_task_id_blocks_1024::1           29                       # Occupied blocks per task id
system.cpu1.dcache.tags.occ_task_id_percent::1024     0.906250                       # Percentage of cache occupancy per task id
system.cpu1.dcache.tags.tag_accesses         43734775                       # Number of tag accesses
system.cpu1.dcache.tags.data_accesses        43734775                       # Number of data accesses
system.cpu_clk_domain.clock                       500                       # Clock period in ticks
system.tol2bus.pwrStateResidencyTicks::UNDEFINED 584797333000                       # Cumulative time (in ticks) in various power states
system.tol2bus.trans_dist::ReadResp          25227344                       # Transaction distribution
system.tol2bus.trans_dist::WritebackDirty       893848                       # Transaction distribution
system.tol2bus.trans_dist::WritebackClean     24835304                       # Transaction distribution
system.tol2bus.trans_dist::CleanEvict        70944856                       # Transaction distribution
system.tol2bus.trans_dist::HardPFReq         42164212                       # Transaction distribution
system.tol2bus.trans_dist::UpgradeReq            1726                       # Transaction distribution
system.tol2bus.trans_dist::SCUpgradeReq           440                       # Transaction distribution
system.tol2bus.trans_dist::UpgradeResp           2166                       # Transaction distribution
system.tol2bus.trans_dist::SCUpgradeFailReq            1                       # Transaction distribution
system.tol2bus.trans_dist::UpgradeFailResp            1                       # Transaction distribution
system.tol2bus.trans_dist::ReadExReq            85545                       # Transaction distribution
system.tol2bus.trans_dist::ReadExResp           85545                       # Transaction distribution
system.tol2bus.trans_dist::ReadCleanReq         17678                       # Transaction distribution
system.tol2bus.trans_dist::ReadSharedReq     25209667                       # Transaction distribution
system.tol2bus.trans_dist::InvalidateReq            1                       # Transaction distribution
system.tol2bus.trans_dist::InvalidateResp            1                       # Transaction distribution
system.tol2bus.pkt_count_system.cpu0.icache.mem_side::system.l2.cpu_side        45409                       # Packet count per connected master and slave (bytes)
system.tol2bus.pkt_count_system.cpu0.dcache.mem_side::system.l2.cpu_side     69751602                       # Packet count per connected master and slave (bytes)
system.tol2bus.pkt_count_system.cpu1.icache.mem_side::system.l2.cpu_side         7623                       # Packet count per connected master and slave (bytes)
system.tol2bus.pkt_count_system.cpu1.dcache.mem_side::system.l2.cpu_side      6131420                       # Packet count per connected master and slave (bytes)
system.tol2bus.pkt_count::total              75936054                       # Packet count per connected master and slave (bytes)
system.tol2bus.pkt_size_system.cpu0.icache.mem_side::system.l2.cpu_side      1937408                       # Cumulative packet size per connected master and slave (bytes)
system.tol2bus.pkt_size_system.cpu0.dcache.mem_side::system.l2.cpu_side   2975929280                       # Cumulative packet size per connected master and slave (bytes)
system.tol2bus.pkt_size_system.cpu1.icache.mem_side::system.l2.cpu_side       325248                       # Cumulative packet size per connected master and slave (bytes)
system.tol2bus.pkt_size_system.cpu1.dcache.mem_side::system.l2.cpu_side    261497600                       # Cumulative packet size per connected master and slave (bytes)
system.tol2bus.pkt_size::total             3239689536                       # Cumulative packet size per connected master and slave (bytes)
system.tol2bus.snoops                       113532281                       # Total snoops (count)
system.tol2bus.snoopTraffic                  27001152                       # Total snoop traffic (bytes)
system.tol2bus.snoop_fanout::samples        138853827                       # Request fanout histogram
system.tol2bus.snoop_fanout::mean            0.163074                       # Request fanout histogram
system.tol2bus.snoop_fanout::stdev           0.372545                       # Request fanout histogram
system.tol2bus.snoop_fanout::underflows             0      0.00%      0.00% # Request fanout histogram
system.tol2bus.snoop_fanout::0              116370583     83.81%     83.81% # Request fanout histogram
system.tol2bus.snoop_fanout::1               22322979     16.08%     99.88% # Request fanout histogram
system.tol2bus.snoop_fanout::2                 160265      0.12%    100.00% # Request fanout histogram
system.tol2bus.snoop_fanout::3                      0      0.00%    100.00% # Request fanout histogram
system.tol2bus.snoop_fanout::4                      0      0.00%    100.00% # Request fanout histogram
system.tol2bus.snoop_fanout::5                      0      0.00%    100.00% # Request fanout histogram
system.tol2bus.snoop_fanout::6                      0      0.00%    100.00% # Request fanout histogram
system.tol2bus.snoop_fanout::7                      0      0.00%    100.00% # Request fanout histogram
system.tol2bus.snoop_fanout::8                      0      0.00%    100.00% # Request fanout histogram
system.tol2bus.snoop_fanout::overflows              0      0.00%    100.00% # Request fanout histogram
system.tol2bus.snoop_fanout::min_value              0                       # Request fanout histogram
system.tol2bus.snoop_fanout::max_value              2                       # Request fanout histogram
system.tol2bus.snoop_fanout::total          138853827                       # Request fanout histogram
system.tol2bus.reqLayer0.occupancy        50645636643                       # Layer occupancy (ticks)
system.tol2bus.reqLayer0.utilization              8.7                       # Layer utilization (%)
system.tol2bus.respLayer1.occupancy       34880152720                       # Layer occupancy (ticks)
system.tol2bus.respLayer1.utilization             6.0                       # Layer utilization (%)
system.tol2bus.respLayer0.occupancy          22711984                       # Layer occupancy (ticks)
system.tol2bus.respLayer0.utilization             0.0                       # Layer utilization (%)
system.tol2bus.respLayer3.occupancy        3069630004                       # Layer occupancy (ticks)
system.tol2bus.respLayer3.utilization             0.5                       # Layer utilization (%)
system.tol2bus.respLayer2.occupancy           3815991                       # Layer occupancy (ticks)
system.tol2bus.respLayer2.utilization             0.0                       # Layer utilization (%)

---------- End Simulation Statistics   ----------
