<<<<<<< HEAD
gem5 Simulator System.  http://gem5.org
gem5 is copyrighted software; use the --copyright option for details.

gem5 compiled Mar 27 2020 00:28:59
gem5 started Apr 28 2020 12:46:44
gem5 executing on muhammet, pid 19517
command line: /home/muhammet/Desktop/gem5/build/RISCV/gem5.fast -re --outdir=/home/muhammet/Desktop/gem5/results/bfs/gowalla.el/prefetch_DCPTPrefetcher_BRRIPRP --stdout-file=output.txt --stderr-file=error.txt /home/muhammet/Desktop/gem5/configs/example/my_se.py -c /home/muhammet/Desktop/gem5/gapbs/bfs -o '-f /home/muhammet/Desktop/gem5/gapbs/test/graphs/gowalla.el' --caches --l1d_size=2kB --l1i_size=2kB --cpu-type=DerivO3CPU -n 4 --mem-size=512MB --l2cache --l2_size=4kB --l2-hwp-type=DCPTPrefetcher --l2-replacement-policy=BRRIPRP --l1i_mshrs=4 --l1d_mshrs=4 --l2_mshrs=20 --l1i_write_buffers=8 --l1d_write_buffers=8 --l2_write_buffers=8

Warning: l2-hwp-type is set ( DCPTPrefetcher ), but the current l2 has a default Hardware Prefetcher of type <class 'm5.params.NullSimObject'> , using the specified by the flag option.
Global frequency set at 1000000000000 ticks per second
**** REAL SIMULATION ****
Read Time:           1.54562
Build Time:          0.18705
Graph has 196591 nodes and 1900654 directed edges for degree: 9
Source:                39292
    i                0.00059
   td         37     0.00002
   td      15618     0.00124
    e                0.00014
   bu      85571     0.00328
   bu      72745     0.00158
   bu      19085     0.00051
   bu       2989     0.00023
    c                0.00030
   td        450     0.00008
=======
Redirecting stdout to /vol1/msoyturk/gem5/results/bfs/gowalla.el/prefetch_DCPTPrefetcher_BRRIPRP/output.txt
Redirecting stderr to /vol1/msoyturk/gem5/results/bfs/gowalla.el/prefetch_DCPTPrefetcher_BRRIPRP/error.txt
gem5 Simulator System.  http://gem5.org
gem5 is copyrighted software; use the --copyright option for details.

gem5 compiled Apr 26 2020 13:32:47
gem5 started May  4 2020 15:30:11
gem5 executing on draco, pid 8001
command line: /vol1/msoyturk/gem5/build/RISCV/gem5.fast -re --outdir=/vol1/msoyturk/gem5/results/bfs/gowalla.el/prefetch_DCPTPrefetcher_BRRIPRP --stdout-file=output.txt --stderr-file=error.txt /vol1/msoyturk/gem5/configs/example/my_se.py -c /vol1/msoyturk/gem5/gapbs/bfs -o '-f /vol1/msoyturk/gem5/gapbs/test/graphs/gowalla.el' --caches --l1d_size=2kB --l1i_size=2kB --cpu-type=DerivO3CPU -n 4 --mem-size=512MB --l2cache --l2_size=4kB --l2-hwp-type=DCPTPrefetcher --l2-replacement-policy=BRRIPRP --l1i_mshrs=4 --l1d_mshrs=4 --l2_mshrs=20 --l1i_write_buffers=8 --l1d_write_buffers=8 --l2_write_buffers=8

info: Standard input is not a terminal, disabling listeners.
Warning: l2-hwp-type is set ( DCPTPrefetcher ), but the current l2 has a default Hardware Prefetcher of type <class 'm5.params.NullSimObject'> , using the specified by the flag option.
Global frequency set at 1000000000000 ticks per second
**** REAL SIMULATION ****
Read Time:           1.54360
Build Time:          0.32477
Graph has 196591 nodes and 1900654 directed edges for degree: 9
Source:                39292
    i                0.00090
   td         37     0.00002
   td      15618     0.00126
    e                0.00027
   bu      85571     0.00570
   bu      72745     0.00283
   bu      19085     0.00092
   bu       2989     0.00041
    c                0.00055
   td        450     0.00012
>>>>>>> 6be7a0502e78ebf80a09b838e3e9c0d652379c93
   td         74     0.00003
   td         20     0.00002
   td          1     0.00001
   td          0     0.00001
<<<<<<< HEAD
Trial Time:          0.00857
Source:               172091
    i                0.00062
   td          5     0.00002
   td         28     0.00002
   td        306     0.00004
   td      30162     0.00213
    e                0.00031
   bu      99792     0.00276
   bu      54088     0.00109
   bu      10392     0.00035
    c                0.00040
   td       1517     0.00023
   td        240     0.00005
   td         46     0.00002
   td         13     0.00002
   td          1     0.00002
   td          0     0.00001
Trial Time:          0.00864
Source:                 3424
    i                0.00057
   td          2     0.00002
   td       1538     0.00009
   td      35165     0.00267
    e                0.00038
   bu      95117     0.00264
   bu      51507     0.00108
   bu      11304     0.00037
   bu       1641     0.00021
    c                0.00028
   td        255     0.00005
   td         48     0.00002
   td         13     0.00002
   td          0     0.00001
Trial Time:          0.00893
Source:                53228
    i                0.00063
   td          7     0.00002
   td      14847     0.00129
    e                0.00014
   bu      83448     0.00334
   bu      74768     0.00162
   bu      19833     0.00053
   bu       3121     0.00023
    c                0.00030
   td        467     0.00008
=======
Trial Time:          0.01369
Source:               172091
    i                0.00088
   td          5     0.00002
   td         28     0.00002
   td        306     0.00004
   td      30162     0.00210
    e                0.00053
   bu      99792     0.00486
   bu      54088     0.00198
   bu      10392     0.00065
    c                0.00065
   td       1517     0.00039
   td        240     0.00007
   td         46     0.00002
   td         13     0.00002
   td          1     0.00001
   td          0     0.00001
Trial Time:          0.01290
Source:                 3424
    i                0.00088
   td          2     0.00001
   td       1538     0.00010
   td      35165     0.00317
    e                0.00072
   bu      95117     0.00468
   bu      51507     0.00196
   bu      11304     0.00067
   bu       1641     0.00037
    c                0.00053
   td        255     0.00008
   td         48     0.00002
   td         13     0.00002
   td          0     0.00001
Trial Time:          0.01388
Source:                53228
    i                0.00088
   td          7     0.00001
   td      14847     0.00125
    e                0.00027
   bu      83448     0.00579
   bu      74768     0.00292
   bu      19833     0.00095
   bu       3121     0.00041
    c                0.00055
   td        467     0.00013
>>>>>>> 6be7a0502e78ebf80a09b838e3e9c0d652379c93
   td         78     0.00003
   td         20     0.00002
   td          1     0.00001
   td          0     0.00001
<<<<<<< HEAD
Trial Time:          0.00876
Source:                54475
    i                0.00065
   td          9     0.00002
   td        134     0.00003
   td      21107     0.00163
    e                0.00023
   bu      94268     0.00300
   bu      64203     0.00132
   bu      14183     0.00042
   bu       2238     0.00022
    c                0.00029
   td        362     0.00006
   td         65     0.00002
   td         20     0.00002
   td          1     0.00001
   td          0     0.00001
Trial Time:          0.00845
Source:                80385
    i                0.00065
   td          3     0.00002
   td        196     0.00002
   td       4658     0.00027
    e                0.00007
   bu      64649     0.00368
   bu      88631     0.00198
   bu      31819     0.00068
   bu       5721     0.00026
    c                0.00034
   td        771     0.00014
   td        112     0.00003
   td         29     0.00002
   td          1     0.00002
   td          0     0.00001
Trial Time:          0.00870
Source:               182281
    i                0.00065
   td          1     0.00002
   td          2     0.00001
   td         74     0.00002
   td       3875     0.00040
    e                0.00005
   bu      73281     0.00354
   bu      86169     0.00180
   bu      27775     0.00061
   bu       4629     0.00025
    c                0.00032
   td        650     0.00011
   td        107     0.00003
   td         26     0.00002
   td          1     0.00001
   td          0     0.00001
Trial Time:          0.00841
Source:                46867
    i                0.00061
   td          7     0.00002
   td       4037     0.00031
    e                0.00004
   bu      65750     0.00366
   bu      91822     0.00199
   bu      29246     0.00066
   bu       4887     0.00026
    c                0.00033
   td        695     0.00012
   td        116     0.00003
   td         27     0.00002
   td          3     0.00002
   td          0     0.00001
Trial Time:          0.00857
Source:               101322
    i                0.00061
   td         32     0.00002
   td        281     0.00003
   td      11555     0.00066
    e                0.00013
   bu      73175     0.00336
   bu      84986     0.00171
   bu      22504     0.00055
   bu       3500     0.00024
    c                0.00031
   td        462     0.00009
   td         73     0.00002
   td         20     0.00002
   td          2     0.00001
   td          0     0.00001
Trial Time:          0.00828
Source:               167256
    i                0.00063
   td          2     0.00002
   td         11     0.00002
   td         90     0.00002
   td       7662     0.00057
    e                0.00010
   bu      79213     0.00339
   bu      81576     0.00171
   bu      23657     0.00056
   bu       3725     0.00024
    c                0.00031
   td        533     0.00010
=======
Trial Time:          0.01387
Source:                54475
    i                0.00088
   td          9     0.00002
   td        134     0.00003
   td      21107     0.00190
    e                0.00037
   bu      94268     0.00526
   bu      64203     0.00236
   bu      14183     0.00076
   bu       2238     0.00039
    c                0.00054
   td        362     0.00010
   td         65     0.00003
   td         20     0.00002
   td          1     0.00001
   td          0     0.00001
Trial Time:          0.01331
Source:                80385
    i                0.00088
   td          3     0.00001
   td        196     0.00003
   td       4658     0.00043
    e                0.00011
   bu      64649     0.00630
   bu      88631     0.00353
   bu      31819     0.00122
   bu       5721     0.00046
    c                0.00058
   td        771     0.00020
   td        112     0.00004
   td         29     0.00002
   td          1     0.00001
   td          0     0.00001
Trial Time:          0.01450
Source:               182281
    i                0.00088
   td          1     0.00001
   td          2     0.00001
   td         74     0.00002
   td       3875     0.00043
    e                0.00009
   bu      73281     0.00611
   bu      86169     0.00332
   bu      27775     0.00110
   bu       4629     0.00045
    c                0.00057
   td        650     0.00017
   td        107     0.00004
   td         26     0.00002
   td          1     0.00001
   td          0     0.00001
Trial Time:          0.01392
Source:                46867
    i                0.00088
   td          7     0.00002
   td       4037     0.00032
    e                0.00008
   bu      65750     0.00628
   bu      91822     0.00356
   bu      29246     0.00119
   bu       4887     0.00046
    c                0.00057
   td        695     0.00019
   td        116     0.00004
   td         27     0.00002
   td          3     0.00001
   td          0     0.00001
Trial Time:          0.01426
Source:               101322
    i                0.00089
   td         32     0.00002
   td        281     0.00003
   td      11555     0.00076
    e                0.00020
   bu      73175     0.00579
   bu      84986     0.00306
   bu      22504     0.00098
   bu       3500     0.00044
    c                0.00055
   td        462     0.00014
   td         73     0.00003
   td         20     0.00002
   td          2     0.00001
   td          0     0.00001
Trial Time:          0.01357
Source:               167256
    i                0.00088
   td          2     0.00001
   td         11     0.00002
   td         90     0.00002
   td       7662     0.00060
    e                0.00016
   bu      79213     0.00584
   bu      81576     0.00306
   bu      23657     0.00100
   bu       3725     0.00043
    c                0.00056
   td        533     0.00015
>>>>>>> 6be7a0502e78ebf80a09b838e3e9c0d652379c93
   td         96     0.00003
   td         24     0.00002
   td          1     0.00001
   td          0     0.00001
<<<<<<< HEAD
Trial Time:          0.00826
Source:                34554
    i                0.00059
   td         23     0.00002
   td      15746     0.00133
    e                0.00015
   bu      84542     0.00330
   bu      73346     0.00158
   bu      19323     0.00052
   bu       3056     0.00023
    c                0.00030
   td        457     0.00008
=======
Trial Time:          0.01348
Source:                34554
    i                0.00088
   td         23     0.00002
   td      15746     0.00137
    e                0.00026
   bu      84542     0.00572
   bu      73346     0.00286
   bu      19323     0.00093
   bu       3056     0.00041
    c                0.00055
   td        457     0.00013
>>>>>>> 6be7a0502e78ebf80a09b838e3e9c0d652379c93
   td         76     0.00003
   td         20     0.00002
   td          1     0.00001
   td          0     0.00001
<<<<<<< HEAD
Trial Time:          0.00868
Source:                21915
    i                0.00063
   td          2     0.00002
   td      10190     0.00062
    e                0.00009
   bu      70238     0.00344
   bu      87495     0.00178
   bu      24279     0.00058
   bu       3795     0.00024
    c                0.00031
   td        493     0.00009
=======
Trial Time:          0.01382
Source:                21915
    i                0.00088
   td          2     0.00001
   td      10190     0.00063
    e                0.00015
   bu      70238     0.00594
   bu      87495     0.00319
   bu      24279     0.00103
   bu       3795     0.00044
    c                0.00056
   td        493     0.00015
>>>>>>> 6be7a0502e78ebf80a09b838e3e9c0d652379c93
   td         76     0.00003
   td         20     0.00002
   td          2     0.00001
   td          0     0.00001
<<<<<<< HEAD
Trial Time:          0.00837
Source:               180954
    i                0.00062
   td          7     0.00002
   td         20     0.00002
   td        225     0.00002
   td       7633     0.00055
    e                0.00009
   bu      74836     0.00349
   bu      83541     0.00177
   bu      25300     0.00058
   bu       4294     0.00025
    c                0.00032
   td        604     0.00010
   td        105     0.00003
   td         21     0.00002
   td          4     0.00002
   td          0     0.00001
Trial Time:          0.00845
Source:               159319
    i                0.00069
   td          4     0.00002
   td         39     0.00002
   td      15317     0.00128
    e                0.00015
   bu      84719     0.00332
   bu      73487     0.00159
   bu      19417     0.00051
   bu       3047     0.00023
    c                0.00030
   td        464     0.00008
=======
Trial Time:          0.01367
Source:               180954
    i                0.00088
   td          7     0.00001
   td         20     0.00002
   td        225     0.00003
   td       7633     0.00055
    e                0.00014
   bu      74836     0.00601
   bu      83541     0.00316
   bu      25300     0.00105
   bu       4294     0.00044
    c                0.00057
   td        604     0.00016
   td        105     0.00004
   td         21     0.00002
   td          4     0.00002
   td          0     0.00001
Trial Time:          0.01377
Source:               159319
    i                0.00089
   td          4     0.00001
   td         39     0.00002
   td      15317     0.00140
    e                0.00026
   bu      84719     0.00575
   bu      73487     0.00286
   bu      19417     0.00093
   bu       3047     0.00041
    c                0.00055
   td        464     0.00013
>>>>>>> 6be7a0502e78ebf80a09b838e3e9c0d652379c93
   td         75     0.00003
   td         20     0.00002
   td          1     0.00001
   td          0     0.00001
<<<<<<< HEAD
Trial Time:          0.00877
Source:                19342
    i                0.00060
   td          2     0.00002
   td      10186     0.00058
    e                0.00008
   bu      70205     0.00346
   bu      87521     0.00177
   bu      24290     0.00058
   bu       3795     0.00024
    c                0.00031
   td        493     0.00009
=======
Trial Time:          0.01393
Source:                19342
    i                0.00087
   td          2     0.00001
   td      10186     0.00063
    e                0.00017
   bu      70205     0.00595
   bu      87521     0.00319
   bu      24290     0.00104
   bu       3795     0.00044
    c                0.00056
   td        493     0.00015
>>>>>>> 6be7a0502e78ebf80a09b838e3e9c0d652379c93
   td         76     0.00003
   td         20     0.00002
   td          2     0.00001
   td          0     0.00001
<<<<<<< HEAD
Trial Time:          0.00831
Source:               156623
    i                0.00068
   td          1     0.00001
   td          3     0.00001
   td         33     0.00002
   td      20375     0.00162
    e                0.00019
   bu      87145     0.00315
   bu      68078     0.00146
   bu      17689     0.00048
   bu       2762     0.00023
    c                0.00030
   td        410     0.00008
   td         73     0.00002
   td         20     0.00002
   td          1     0.00001
   td          0     0.00001
Trial Time:          0.00884
Average Time:        0.00856
Exiting @ tick 1964567904000 because exiting with last active thread context
=======
Trial Time:          0.01370
Source:               156623
    i                0.00088
   td          1     0.00001
   td          3     0.00001
   td         33     0.00002
   td      20375     0.00180
    e                0.00033
   bu      87145     0.00549
   bu      68078     0.00264
   bu      17689     0.00087
   bu       2762     0.00039
    c                0.00055
   td        410     0.00011
   td         73     0.00003
   td         20     0.00002
   td          1     0.00001
   td          0     0.00001
Trial Time:          0.01384
Average Time:        0.01376
Exiting @ tick 2213371506000 because exiting with last active thread context
>>>>>>> 6be7a0502e78ebf80a09b838e3e9c0d652379c93
