
---------- Begin Simulation Statistics ----------
final_tick                               935339207500                       # Number of ticks from beginning of simulation (restored from checkpoints and never reset)
host_inst_rate                                  91992                       # Simulator instruction rate (inst/s)
host_mem_usage                                 739396                       # Number of bytes of host memory used
host_op_rate                                    92293                       # Simulator op (including micro ops) rate (op/s)
host_seconds                                 12059.66                       # Real time elapsed on the host
host_tick_rate                               77559354                       # Simulator tick rate (ticks/s)
sim_freq                                 1000000000000                       # Frequency of simulated ticks
sim_insts                                  1109390355                       # Number of instructions simulated
sim_ops                                    1113016839                       # Number of ops (including micro ops) simulated
sim_seconds                                  0.935339                       # Number of seconds simulated
sim_ticks                                935339207500                       # Number of ticks simulated
system.cpu0.branchPred.BTBCorrect                   0                       # Number of correct BTB predictions (this stat may not work properly.
system.cpu0.branchPred.BTBHitPct            88.517740                       # BTB Hit Percentage
system.cpu0.branchPred.BTBHits              132649786                       # Number of BTB hits
system.cpu0.branchPred.BTBLookups           149856725                       # Number of BTB lookups
system.cpu0.branchPred.RASInCorrect                 0                       # Number of incorrect RAS predictions.
system.cpu0.branchPred.condIncorrect         10011320                       # Number of conditional branches incorrect
system.cpu0.branchPred.condPredicted        206059126                       # Number of conditional branches predicted
system.cpu0.branchPred.indirectHits          16913446                       # Number of indirect target hits.
system.cpu0.branchPred.indirectLookups       17015302                       # Number of indirect predictor lookups.
system.cpu0.branchPred.indirectMisses          101856                       # Number of indirect misses.
system.cpu0.branchPred.lookups              262275167                       # Number of BP lookups
system.cpu0.branchPred.usedRAS                      0                       # Number of times the RAS was used to get a target.
system.cpu0.branchPredindirectMispredicted      1851406                       # Number of mispredicted indirect branches.
system.cpu0.commit.amos                        905992                       # Number of atomic instructions committed
system.cpu0.commit.branchMispredicts          6927613                       # The number of times a branch was mispredicted
system.cpu0.commit.branches                 252639084                       # Number of branches committed
system.cpu0.commit.bw_lim_events             36109257                       # number cycles where commit BW limit reached
system.cpu0.commit.commitNonSpecStalls        2725321                       # The number of times commit has been forced to stall to communicate backwards
system.cpu0.commit.commitSquashedInsts       20460210                       # The number of squashed insts skipped by commit
system.cpu0.commit.committedInsts          1016578773                       # Number of instructions committed
system.cpu0.commit.committedOps            1017487309                       # Number of ops (including micro ops) committed
system.cpu0.commit.committed_per_cycle::samples   1666397868                       # Number of insts commited each cycle
system.cpu0.commit.committed_per_cycle::mean     0.610591                       # Number of insts commited each cycle
system.cpu0.commit.committed_per_cycle::stdev     1.429565                       # Number of insts commited each cycle
system.cpu0.commit.committed_per_cycle::underflows            0      0.00%      0.00% # Number of insts commited each cycle
system.cpu0.commit.committed_per_cycle::0   1191422634     71.50%     71.50% # Number of insts commited each cycle
system.cpu0.commit.committed_per_cycle::1    280220169     16.82%     88.31% # Number of insts commited each cycle
system.cpu0.commit.committed_per_cycle::2     71524924      4.29%     92.60% # Number of insts commited each cycle
system.cpu0.commit.committed_per_cycle::3     61928372      3.72%     96.32% # Number of insts commited each cycle
system.cpu0.commit.committed_per_cycle::4     14150191      0.85%     97.17% # Number of insts commited each cycle
system.cpu0.commit.committed_per_cycle::5      5537915      0.33%     97.50% # Number of insts commited each cycle
system.cpu0.commit.committed_per_cycle::6      3263061      0.20%     97.70% # Number of insts commited each cycle
system.cpu0.commit.committed_per_cycle::7      2241345      0.13%     97.83% # Number of insts commited each cycle
system.cpu0.commit.committed_per_cycle::8     36109257      2.17%    100.00% # Number of insts commited each cycle
system.cpu0.commit.committed_per_cycle::overflows            0      0.00%    100.00% # Number of insts commited each cycle
system.cpu0.commit.committed_per_cycle::min_value            0                       # Number of insts commited each cycle
system.cpu0.commit.committed_per_cycle::max_value            8                       # Number of insts commited each cycle
system.cpu0.commit.committed_per_cycle::total   1666397868                       # Number of insts commited each cycle
system.cpu0.commit.fp_insts                        50                       # Number of committed floating point instructions.
system.cpu0.commit.function_calls            20545182                       # Number of function calls committed.
system.cpu0.commit.int_insts                983008091                       # Number of committed integer instructions.
system.cpu0.commit.loads                    316447598                       # Number of loads committed
system.cpu0.commit.membars                    1814442                       # Number of memory barriers committed
system.cpu0.commit.op_class_0::No_OpClass      1814448      0.18%      0.18% # Class of committed instruction
system.cpu0.commit.op_class_0::IntAlu       563612946     55.39%     55.57% # Class of committed instruction
system.cpu0.commit.op_class_0::IntMult        8031691      0.79%     56.36% # Class of committed instruction
system.cpu0.commit.op_class_0::IntDiv         1811039      0.18%     56.54% # Class of committed instruction
system.cpu0.commit.op_class_0::FloatAdd             0      0.00%     56.54% # Class of committed instruction
system.cpu0.commit.op_class_0::FloatCmp             4      0.00%     56.54% # Class of committed instruction
system.cpu0.commit.op_class_0::FloatCvt            12      0.00%     56.54% # Class of committed instruction
system.cpu0.commit.op_class_0::FloatMult            0      0.00%     56.54% # Class of committed instruction
system.cpu0.commit.op_class_0::FloatMultAcc            0      0.00%     56.54% # Class of committed instruction
system.cpu0.commit.op_class_0::FloatDiv             2      0.00%     56.54% # Class of committed instruction
system.cpu0.commit.op_class_0::FloatMisc            4      0.00%     56.54% # Class of committed instruction
system.cpu0.commit.op_class_0::FloatSqrt            0      0.00%     56.54% # Class of committed instruction
system.cpu0.commit.op_class_0::SimdAdd              0      0.00%     56.54% # Class of committed instruction
system.cpu0.commit.op_class_0::SimdAddAcc            0      0.00%     56.54% # Class of committed instruction
system.cpu0.commit.op_class_0::SimdAlu              0      0.00%     56.54% # Class of committed instruction
system.cpu0.commit.op_class_0::SimdCmp              0      0.00%     56.54% # Class of committed instruction
system.cpu0.commit.op_class_0::SimdCvt              0      0.00%     56.54% # Class of committed instruction
system.cpu0.commit.op_class_0::SimdMisc             0      0.00%     56.54% # Class of committed instruction
system.cpu0.commit.op_class_0::SimdMult             0      0.00%     56.54% # Class of committed instruction
system.cpu0.commit.op_class_0::SimdMultAcc            0      0.00%     56.54% # Class of committed instruction
system.cpu0.commit.op_class_0::SimdShift            0      0.00%     56.54% # Class of committed instruction
system.cpu0.commit.op_class_0::SimdShiftAcc            0      0.00%     56.54% # Class of committed instruction
system.cpu0.commit.op_class_0::SimdDiv              0      0.00%     56.54% # Class of committed instruction
system.cpu0.commit.op_class_0::SimdSqrt             0      0.00%     56.54% # Class of committed instruction
system.cpu0.commit.op_class_0::SimdFloatAdd            0      0.00%     56.54% # Class of committed instruction
system.cpu0.commit.op_class_0::SimdFloatAlu            0      0.00%     56.54% # Class of committed instruction
system.cpu0.commit.op_class_0::SimdFloatCmp            0      0.00%     56.54% # Class of committed instruction
system.cpu0.commit.op_class_0::SimdFloatCvt            0      0.00%     56.54% # Class of committed instruction
system.cpu0.commit.op_class_0::SimdFloatDiv            0      0.00%     56.54% # Class of committed instruction
system.cpu0.commit.op_class_0::SimdFloatMisc            0      0.00%     56.54% # Class of committed instruction
system.cpu0.commit.op_class_0::SimdFloatMult            0      0.00%     56.54% # Class of committed instruction
system.cpu0.commit.op_class_0::SimdFloatMultAcc            0      0.00%     56.54% # Class of committed instruction
system.cpu0.commit.op_class_0::SimdFloatSqrt            0      0.00%     56.54% # Class of committed instruction
system.cpu0.commit.op_class_0::SimdReduceAdd            0      0.00%     56.54% # Class of committed instruction
system.cpu0.commit.op_class_0::SimdReduceAlu            0      0.00%     56.54% # Class of committed instruction
system.cpu0.commit.op_class_0::SimdReduceCmp            0      0.00%     56.54% # Class of committed instruction
system.cpu0.commit.op_class_0::SimdFloatReduceAdd            0      0.00%     56.54% # Class of committed instruction
system.cpu0.commit.op_class_0::SimdFloatReduceCmp            0      0.00%     56.54% # Class of committed instruction
system.cpu0.commit.op_class_0::SimdAes              0      0.00%     56.54% # Class of committed instruction
system.cpu0.commit.op_class_0::SimdAesMix            0      0.00%     56.54% # Class of committed instruction
system.cpu0.commit.op_class_0::SimdSha1Hash            0      0.00%     56.54% # Class of committed instruction
system.cpu0.commit.op_class_0::SimdSha1Hash2            0      0.00%     56.54% # Class of committed instruction
system.cpu0.commit.op_class_0::SimdSha256Hash            0      0.00%     56.54% # Class of committed instruction
system.cpu0.commit.op_class_0::SimdSha256Hash2            0      0.00%     56.54% # Class of committed instruction
system.cpu0.commit.op_class_0::SimdShaSigma2            0      0.00%     56.54% # Class of committed instruction
system.cpu0.commit.op_class_0::SimdShaSigma3            0      0.00%     56.54% # Class of committed instruction
system.cpu0.commit.op_class_0::SimdPredAlu            0      0.00%     56.54% # Class of committed instruction
system.cpu0.commit.op_class_0::MemRead      317353582     31.19%     87.73% # Class of committed instruction
system.cpu0.commit.op_class_0::MemWrite     124863553     12.27%    100.00% # Class of committed instruction
system.cpu0.commit.op_class_0::FloatMemRead            8      0.00%    100.00% # Class of committed instruction
system.cpu0.commit.op_class_0::FloatMemWrite           20      0.00%    100.00% # Class of committed instruction
system.cpu0.commit.op_class_0::IprAccess            0      0.00%    100.00% # Class of committed instruction
system.cpu0.commit.op_class_0::InstPrefetch            0      0.00%    100.00% # Class of committed instruction
system.cpu0.commit.op_class_0::total       1017487309                       # Class of committed instruction
system.cpu0.commit.refs                     442217163                       # Number of memory references committed
system.cpu0.commit.swp_count                        0                       # Number of s/w prefetches committed
system.cpu0.commit.vec_insts                        0                       # Number of committed Vector instructions.
system.cpu0.committedInsts                 1016578773                       # Number of Instructions Simulated
system.cpu0.committedOps                   1017487309                       # Number of Ops (including micro ops) Simulated
system.cpu0.cpi                              1.823485                       # CPI: Cycles Per Instruction
system.cpu0.cpi_total                        1.823485                       # CPI: Total CPI of All Threads
system.cpu0.decode.BlockedCycles            199059316                       # Number of cycles decode is blocked
system.cpu0.decode.BranchMispred              3087731                       # Number of times decode detected a branch misprediction
system.cpu0.decode.BranchResolved           131167691                       # Number of times decode resolved a branch
system.cpu0.decode.DecodedInsts            1052639855                       # Number of instructions handled by decode
system.cpu0.decode.IdleCycles               730319090                       # Number of cycles decode is idle
system.cpu0.decode.RunCycles                735127739                       # Number of cycles decode is running
system.cpu0.decode.SquashCycles               6937197                       # Number of cycles decode is squashing
system.cpu0.decode.SquashedInsts              3066953                       # Number of squashed instructions handled by decode
system.cpu0.decode.UnblockCycles              2874972                       # Number of cycles decode is unblocking
system.cpu0.dtb.accesses                            0                       # DTB accesses
system.cpu0.dtb.hits                                0                       # DTB hits
system.cpu0.dtb.misses                              0                       # DTB misses
system.cpu0.dtb.read_accesses                       0                       # DTB read accesses
system.cpu0.dtb.read_hits                           0                       # DTB read hits
system.cpu0.dtb.read_misses                         0                       # DTB read misses
system.cpu0.dtb.write_accesses                      0                       # DTB write accesses
system.cpu0.dtb.write_hits                          0                       # DTB write hits
system.cpu0.dtb.write_misses                        0                       # DTB write misses
system.cpu0.fetch.Branches                  262275167                       # Number of branches that fetch encountered
system.cpu0.fetch.CacheLines                166494889                       # Number of cache lines fetched
system.cpu0.fetch.Cycles                    936192430                       # Number of cycles fetch has run and was not squashing or blocked
system.cpu0.fetch.IcacheSquashes              4216454                       # Number of outstanding Icache misses that were squashed
system.cpu0.fetch.IcacheWaitRetryStallCycles           75                       # Number of stall cycles due to full MSHR
system.cpu0.fetch.Insts                    1060688810                       # Number of instructions fetch has processed
system.cpu0.fetch.MiscStallCycles                  11                       # Number of cycles fetch has spent waiting on interrupts, or bad addresses, or out of MSHRs
system.cpu0.fetch.PendingTrapStallCycles           12                       # Number of stall cycles due to pending traps
system.cpu0.fetch.SquashCycles               20041812                       # Number of cycles fetch has spent squashing
system.cpu0.fetch.branchRate                 0.141486                       # Number of branch fetches per cycle
system.cpu0.fetch.icacheStallCycles         728104880                       # Number of cycles fetch is stalled on an Icache miss
system.cpu0.fetch.predictedBranches         149563232                       # Number of branches that fetch has predicted taken
system.cpu0.fetch.rate                       0.572196                       # Number of inst fetches per cycle
system.cpu0.fetch.rateDist::samples        1674318314                       # Number of instructions fetched each cycle (Total)
system.cpu0.fetch.rateDist::mean             0.634048                       # Number of instructions fetched each cycle (Total)
system.cpu0.fetch.rateDist::stdev            0.903166                       # Number of instructions fetched each cycle (Total)
system.cpu0.fetch.rateDist::underflows              0      0.00%      0.00% # Number of instructions fetched each cycle (Total)
system.cpu0.fetch.rateDist::0               917085064     54.77%     54.77% # Number of instructions fetched each cycle (Total)
system.cpu0.fetch.rateDist::1               567453074     33.89%     88.67% # Number of instructions fetched each cycle (Total)
system.cpu0.fetch.rateDist::2               110728420      6.61%     95.28% # Number of instructions fetched each cycle (Total)
system.cpu0.fetch.rateDist::3                60683479      3.62%     98.90% # Number of instructions fetched each cycle (Total)
system.cpu0.fetch.rateDist::4                10669987      0.64%     99.54% # Number of instructions fetched each cycle (Total)
system.cpu0.fetch.rateDist::5                 3849543      0.23%     99.77% # Number of instructions fetched each cycle (Total)
system.cpu0.fetch.rateDist::6                  133530      0.01%     99.78% # Number of instructions fetched each cycle (Total)
system.cpu0.fetch.rateDist::7                 1813197      0.11%     99.89% # Number of instructions fetched each cycle (Total)
system.cpu0.fetch.rateDist::8                 1902020      0.11%    100.00% # Number of instructions fetched each cycle (Total)
system.cpu0.fetch.rateDist::overflows               0      0.00%    100.00% # Number of instructions fetched each cycle (Total)
system.cpu0.fetch.rateDist::min_value               0                       # Number of instructions fetched each cycle (Total)
system.cpu0.fetch.rateDist::max_value               8                       # Number of instructions fetched each cycle (Total)
system.cpu0.fetch.rateDist::total          1674318314                       # Number of instructions fetched each cycle (Total)
system.cpu0.fp_regfile_reads                       54                       # number of floating regfile reads
system.cpu0.fp_regfile_writes                      25                       # number of floating regfile writes
system.cpu0.idleCycles                      179397550                       # Total number of cycles that the CPU has spent unscheduled due to idling
system.cpu0.iew.branchMispredicts             7058678                       # Number of branch mispredicts detected at execute
system.cpu0.iew.exec_branches               255300716                       # Number of branches executed
system.cpu0.iew.exec_nop                            0                       # number of nop insts executed
system.cpu0.iew.exec_rate                    0.558590                       # Inst execution rate
system.cpu0.iew.exec_refs                   452463952                       # number of memory reference insts executed
system.cpu0.iew.exec_stores                 127387098                       # Number of stores executed
system.cpu0.iew.exec_swp                            0                       # number of swp insts executed
system.cpu0.iew.iewBlockCycles              156179252                       # Number of cycles IEW is blocking
system.cpu0.iew.iewDispLoadInsts            322500072                       # Number of dispatched load instructions
system.cpu0.iew.iewDispNonSpecInsts            911438                       # Number of dispatched non-speculative instructions
system.cpu0.iew.iewDispSquashedInsts          3829978                       # Number of squashed instructions skipped by dispatch
system.cpu0.iew.iewDispStoreInsts           128332018                       # Number of dispatched store instructions
system.cpu0.iew.iewDispatchedInsts         1037933535                       # Number of instructions dispatched to IQ
system.cpu0.iew.iewExecLoadInsts            325076854                       # Number of load instructions executed
system.cpu0.iew.iewExecSquashedInsts          3298445                       # Number of squashed instructions skipped in execute
system.cpu0.iew.iewExecutedInsts           1035466453                       # Number of executed instructions
system.cpu0.iew.iewIQFullEvents                794818                       # Number of times the IQ has become full, causing a stall
system.cpu0.iew.iewIdleCycles                       0                       # Number of cycles IEW is idle
system.cpu0.iew.iewLSQFullEvents              3643125                       # Number of times the LSQ has become full, causing a stall
system.cpu0.iew.iewSquashCycles               6937197                       # Number of cycles IEW is squashing
system.cpu0.iew.iewUnblockCycles              5513989                       # Number of cycles IEW is unblocking
system.cpu0.iew.lsq.thread0.blockedLoads            0                       # Number of blocked loads due to partial load-store forwarding
system.cpu0.iew.lsq.thread0.cacheBlocked       181843                       # Number of times an access to memory failed due to the cache being blocked
system.cpu0.iew.lsq.thread0.forwLoads        20809348                       # Number of loads that had data forwarded from stores
system.cpu0.iew.lsq.thread0.ignoredResponses         9321                       # Number of memory responses ignored because the instruction is squashed
system.cpu0.iew.lsq.thread0.invAddrLoads            0                       # Number of loads ignored due to an invalid address
system.cpu0.iew.lsq.thread0.invAddrSwpfs            0                       # Number of software prefetches ignored due to an invalid address
system.cpu0.iew.lsq.thread0.memOrderViolation         9862                       # Number of memory ordering violations
system.cpu0.iew.lsq.thread0.rescheduledLoads      3698380                       # Number of loads that were rescheduled
system.cpu0.iew.lsq.thread0.squashedLoads      6052474                       # Number of loads squashed
system.cpu0.iew.lsq.thread0.squashedStores      2562452                       # Number of stores squashed
system.cpu0.iew.memOrderViolationEvents          9862                       # Number of memory order violations
system.cpu0.iew.predictedNotTakenIncorrect      1155731                       # Number of branches that were predicted not taken incorrectly
system.cpu0.iew.predictedTakenIncorrect       5902947                       # Number of branches that were predicted taken incorrectly
system.cpu0.iew.wb_consumers                459042995                       # num instructions consuming a value
system.cpu0.iew.wb_count                   1028493875                       # cumulative count of insts written-back
system.cpu0.iew.wb_fanout                    0.825890                       # average fanout of values written-back
system.cpu0.iew.wb_producers                379119209                       # num instructions producing a value
system.cpu0.iew.wb_rate                      0.554828                       # insts written-back per cycle
system.cpu0.iew.wb_sent                    1028594024                       # cumulative count of insts sent to commit
system.cpu0.int_regfile_reads              1269392015                       # number of integer regfile reads
system.cpu0.int_regfile_writes              654442018                       # number of integer regfile writes
system.cpu0.ipc                              0.548401                       # IPC: Instructions Per Cycle
system.cpu0.ipc_total                        0.548401                       # IPC: Total IPC of All Threads
system.cpu0.iq.FU_type_0::No_OpClass          1816086      0.17%      0.17% # Type of FU issued
system.cpu0.iq.FU_type_0::IntAlu            573240662     55.18%     55.36% # Type of FU issued
system.cpu0.iq.FU_type_0::IntMult             8147418      0.78%     56.14% # Type of FU issued
system.cpu0.iq.FU_type_0::IntDiv              1811749      0.17%     56.32% # Type of FU issued
system.cpu0.iq.FU_type_0::FloatAdd                  0      0.00%     56.32% # Type of FU issued
system.cpu0.iq.FU_type_0::FloatCmp                  4      0.00%     56.32% # Type of FU issued
system.cpu0.iq.FU_type_0::FloatCvt                 12      0.00%     56.32% # Type of FU issued
system.cpu0.iq.FU_type_0::FloatMult                 0      0.00%     56.32% # Type of FU issued
system.cpu0.iq.FU_type_0::FloatMultAcc              2      0.00%     56.32% # Type of FU issued
system.cpu0.iq.FU_type_0::FloatDiv                  2      0.00%     56.32% # Type of FU issued
system.cpu0.iq.FU_type_0::FloatMisc                 4      0.00%     56.32% # Type of FU issued
system.cpu0.iq.FU_type_0::FloatSqrt                 0      0.00%     56.32% # Type of FU issued
system.cpu0.iq.FU_type_0::SimdAdd                   0      0.00%     56.32% # Type of FU issued
system.cpu0.iq.FU_type_0::SimdAddAcc                0      0.00%     56.32% # Type of FU issued
system.cpu0.iq.FU_type_0::SimdAlu                   0      0.00%     56.32% # Type of FU issued
system.cpu0.iq.FU_type_0::SimdCmp                   0      0.00%     56.32% # Type of FU issued
system.cpu0.iq.FU_type_0::SimdCvt                   0      0.00%     56.32% # Type of FU issued
system.cpu0.iq.FU_type_0::SimdMisc                  0      0.00%     56.32% # Type of FU issued
system.cpu0.iq.FU_type_0::SimdMult                  0      0.00%     56.32% # Type of FU issued
system.cpu0.iq.FU_type_0::SimdMultAcc               0      0.00%     56.32% # Type of FU issued
system.cpu0.iq.FU_type_0::SimdShift                 0      0.00%     56.32% # Type of FU issued
system.cpu0.iq.FU_type_0::SimdShiftAcc              0      0.00%     56.32% # Type of FU issued
system.cpu0.iq.FU_type_0::SimdDiv                   0      0.00%     56.32% # Type of FU issued
system.cpu0.iq.FU_type_0::SimdSqrt                  0      0.00%     56.32% # Type of FU issued
system.cpu0.iq.FU_type_0::SimdFloatAdd              0      0.00%     56.32% # Type of FU issued
system.cpu0.iq.FU_type_0::SimdFloatAlu              0      0.00%     56.32% # Type of FU issued
system.cpu0.iq.FU_type_0::SimdFloatCmp              0      0.00%     56.32% # Type of FU issued
system.cpu0.iq.FU_type_0::SimdFloatCvt              0      0.00%     56.32% # Type of FU issued
system.cpu0.iq.FU_type_0::SimdFloatDiv              0      0.00%     56.32% # Type of FU issued
system.cpu0.iq.FU_type_0::SimdFloatMisc             0      0.00%     56.32% # Type of FU issued
system.cpu0.iq.FU_type_0::SimdFloatMult             0      0.00%     56.32% # Type of FU issued
system.cpu0.iq.FU_type_0::SimdFloatMultAcc            0      0.00%     56.32% # Type of FU issued
system.cpu0.iq.FU_type_0::SimdFloatSqrt             0      0.00%     56.32% # Type of FU issued
system.cpu0.iq.FU_type_0::SimdReduceAdd             0      0.00%     56.32% # Type of FU issued
system.cpu0.iq.FU_type_0::SimdReduceAlu             0      0.00%     56.32% # Type of FU issued
system.cpu0.iq.FU_type_0::SimdReduceCmp             0      0.00%     56.32% # Type of FU issued
system.cpu0.iq.FU_type_0::SimdFloatReduceAdd            0      0.00%     56.32% # Type of FU issued
system.cpu0.iq.FU_type_0::SimdFloatReduceCmp            0      0.00%     56.32% # Type of FU issued
system.cpu0.iq.FU_type_0::SimdAes                   0      0.00%     56.32% # Type of FU issued
system.cpu0.iq.FU_type_0::SimdAesMix                0      0.00%     56.32% # Type of FU issued
system.cpu0.iq.FU_type_0::SimdSha1Hash              0      0.00%     56.32% # Type of FU issued
system.cpu0.iq.FU_type_0::SimdSha1Hash2             0      0.00%     56.32% # Type of FU issued
system.cpu0.iq.FU_type_0::SimdSha256Hash            0      0.00%     56.32% # Type of FU issued
system.cpu0.iq.FU_type_0::SimdSha256Hash2            0      0.00%     56.32% # Type of FU issued
system.cpu0.iq.FU_type_0::SimdShaSigma2             0      0.00%     56.32% # Type of FU issued
system.cpu0.iq.FU_type_0::SimdShaSigma3             0      0.00%     56.32% # Type of FU issued
system.cpu0.iq.FU_type_0::SimdPredAlu               0      0.00%     56.32% # Type of FU issued
system.cpu0.iq.FU_type_0::MemRead           327017244     31.48%     87.80% # Type of FU issued
system.cpu0.iq.FU_type_0::MemWrite          126731682     12.20%    100.00% # Type of FU issued
system.cpu0.iq.FU_type_0::FloatMemRead              9      0.00%    100.00% # Type of FU issued
system.cpu0.iq.FU_type_0::FloatMemWrite            24      0.00%    100.00% # Type of FU issued
system.cpu0.iq.FU_type_0::IprAccess                 0      0.00%    100.00% # Type of FU issued
system.cpu0.iq.FU_type_0::InstPrefetch              0      0.00%    100.00% # Type of FU issued
system.cpu0.iq.FU_type_0::total            1038764898                       # Type of FU issued
system.cpu0.iq.fp_alu_accesses                     59                       # Number of floating point alu accesses
system.cpu0.iq.fp_inst_queue_reads                116                       # Number of floating instruction queue reads
system.cpu0.iq.fp_inst_queue_wakeup_accesses           57                       # Number of floating instruction queue wakeup accesses
system.cpu0.iq.fp_inst_queue_writes                64                       # Number of floating instruction queue writes
system.cpu0.iq.fu_busy_cnt                    1428436                       # FU busy when requested
system.cpu0.iq.fu_busy_rate                  0.001375                       # FU busy rate (busy events/executed inst)
system.cpu0.iq.fu_full::No_OpClass                  0      0.00%      0.00% # attempts to use FU when none available
system.cpu0.iq.fu_full::IntAlu                 285224     19.97%     19.97% # attempts to use FU when none available
system.cpu0.iq.fu_full::IntMult                     0      0.00%     19.97% # attempts to use FU when none available
system.cpu0.iq.fu_full::IntDiv                      0      0.00%     19.97% # attempts to use FU when none available
system.cpu0.iq.fu_full::FloatAdd                    0      0.00%     19.97% # attempts to use FU when none available
system.cpu0.iq.fu_full::FloatCmp                    0      0.00%     19.97% # attempts to use FU when none available
system.cpu0.iq.fu_full::FloatCvt                    0      0.00%     19.97% # attempts to use FU when none available
system.cpu0.iq.fu_full::FloatMult                   0      0.00%     19.97% # attempts to use FU when none available
system.cpu0.iq.fu_full::FloatMultAcc                0      0.00%     19.97% # attempts to use FU when none available
system.cpu0.iq.fu_full::FloatDiv                    0      0.00%     19.97% # attempts to use FU when none available
system.cpu0.iq.fu_full::FloatMisc                   0      0.00%     19.97% # attempts to use FU when none available
system.cpu0.iq.fu_full::FloatSqrt                   0      0.00%     19.97% # attempts to use FU when none available
system.cpu0.iq.fu_full::SimdAdd                     0      0.00%     19.97% # attempts to use FU when none available
system.cpu0.iq.fu_full::SimdAddAcc                  0      0.00%     19.97% # attempts to use FU when none available
system.cpu0.iq.fu_full::SimdAlu                     0      0.00%     19.97% # attempts to use FU when none available
system.cpu0.iq.fu_full::SimdCmp                     0      0.00%     19.97% # attempts to use FU when none available
system.cpu0.iq.fu_full::SimdCvt                     0      0.00%     19.97% # attempts to use FU when none available
system.cpu0.iq.fu_full::SimdMisc                    0      0.00%     19.97% # attempts to use FU when none available
system.cpu0.iq.fu_full::SimdMult                    0      0.00%     19.97% # attempts to use FU when none available
system.cpu0.iq.fu_full::SimdMultAcc                 0      0.00%     19.97% # attempts to use FU when none available
system.cpu0.iq.fu_full::SimdShift                   0      0.00%     19.97% # attempts to use FU when none available
system.cpu0.iq.fu_full::SimdShiftAcc                0      0.00%     19.97% # attempts to use FU when none available
system.cpu0.iq.fu_full::SimdDiv                     0      0.00%     19.97% # attempts to use FU when none available
system.cpu0.iq.fu_full::SimdSqrt                    0      0.00%     19.97% # attempts to use FU when none available
system.cpu0.iq.fu_full::SimdFloatAdd                0      0.00%     19.97% # attempts to use FU when none available
system.cpu0.iq.fu_full::SimdFloatAlu                0      0.00%     19.97% # attempts to use FU when none available
system.cpu0.iq.fu_full::SimdFloatCmp                0      0.00%     19.97% # attempts to use FU when none available
system.cpu0.iq.fu_full::SimdFloatCvt                0      0.00%     19.97% # attempts to use FU when none available
system.cpu0.iq.fu_full::SimdFloatDiv                0      0.00%     19.97% # attempts to use FU when none available
system.cpu0.iq.fu_full::SimdFloatMisc               0      0.00%     19.97% # attempts to use FU when none available
system.cpu0.iq.fu_full::SimdFloatMult               0      0.00%     19.97% # attempts to use FU when none available
system.cpu0.iq.fu_full::SimdFloatMultAcc            0      0.00%     19.97% # attempts to use FU when none available
system.cpu0.iq.fu_full::SimdFloatSqrt               0      0.00%     19.97% # attempts to use FU when none available
system.cpu0.iq.fu_full::SimdReduceAdd               0      0.00%     19.97% # attempts to use FU when none available
system.cpu0.iq.fu_full::SimdReduceAlu               0      0.00%     19.97% # attempts to use FU when none available
system.cpu0.iq.fu_full::SimdReduceCmp               0      0.00%     19.97% # attempts to use FU when none available
system.cpu0.iq.fu_full::SimdFloatReduceAdd            0      0.00%     19.97% # attempts to use FU when none available
system.cpu0.iq.fu_full::SimdFloatReduceCmp            0      0.00%     19.97% # attempts to use FU when none available
system.cpu0.iq.fu_full::SimdAes                     0      0.00%     19.97% # attempts to use FU when none available
system.cpu0.iq.fu_full::SimdAesMix                  0      0.00%     19.97% # attempts to use FU when none available
system.cpu0.iq.fu_full::SimdSha1Hash                0      0.00%     19.97% # attempts to use FU when none available
system.cpu0.iq.fu_full::SimdSha1Hash2               0      0.00%     19.97% # attempts to use FU when none available
system.cpu0.iq.fu_full::SimdSha256Hash              0      0.00%     19.97% # attempts to use FU when none available
system.cpu0.iq.fu_full::SimdSha256Hash2             0      0.00%     19.97% # attempts to use FU when none available
system.cpu0.iq.fu_full::SimdShaSigma2               0      0.00%     19.97% # attempts to use FU when none available
system.cpu0.iq.fu_full::SimdShaSigma3               0      0.00%     19.97% # attempts to use FU when none available
system.cpu0.iq.fu_full::SimdPredAlu                 0      0.00%     19.97% # attempts to use FU when none available
system.cpu0.iq.fu_full::MemRead                987237     69.11%     89.08% # attempts to use FU when none available
system.cpu0.iq.fu_full::MemWrite               155973     10.92%    100.00% # attempts to use FU when none available
system.cpu0.iq.fu_full::FloatMemRead                0      0.00%    100.00% # attempts to use FU when none available
system.cpu0.iq.fu_full::FloatMemWrite               2      0.00%    100.00% # attempts to use FU when none available
system.cpu0.iq.fu_full::IprAccess                   0      0.00%    100.00% # attempts to use FU when none available
system.cpu0.iq.fu_full::InstPrefetch                0      0.00%    100.00% # attempts to use FU when none available
system.cpu0.iq.int_alu_accesses            1038377189                       # Number of integer alu accesses
system.cpu0.iq.int_inst_queue_reads        3753383810                       # Number of integer instruction queue reads
system.cpu0.iq.int_inst_queue_wakeup_accesses   1028493818                       # Number of integer instruction queue wakeup accesses
system.cpu0.iq.int_inst_queue_writes       1058388439                       # Number of integer instruction queue writes
system.cpu0.iq.iqInstsAdded                1035207495                       # Number of instructions added to the IQ (excludes non-spec)
system.cpu0.iq.iqInstsIssued               1038764898                       # Number of instructions issued
system.cpu0.iq.iqNonSpecInstsAdded            2726040                       # Number of non-speculative instructions added to the IQ
system.cpu0.iq.iqSquashedInstsExamined       20446219                       # Number of squashed instructions iterated over during squash; mainly for profiling
system.cpu0.iq.iqSquashedInstsIssued           107380                       # Number of squashed instructions issued
system.cpu0.iq.iqSquashedNonSpecRemoved           719                       # Number of squashed non-spec instructions that were removed
system.cpu0.iq.iqSquashedOperandsExamined     10044227                       # Number of squashed operands that are examined and possibly removed from graph
system.cpu0.iq.issued_per_cycle::samples   1674318314                       # Number of insts issued each cycle
system.cpu0.iq.issued_per_cycle::mean        0.620411                       # Number of insts issued each cycle
system.cpu0.iq.issued_per_cycle::stdev       0.859490                       # Number of insts issued each cycle
system.cpu0.iq.issued_per_cycle::underflows            0      0.00%      0.00% # Number of insts issued each cycle
system.cpu0.iq.issued_per_cycle::0          933166637     55.73%     55.73% # Number of insts issued each cycle
system.cpu0.iq.issued_per_cycle::1          529538501     31.63%     87.36% # Number of insts issued each cycle
system.cpu0.iq.issued_per_cycle::2          149305721      8.92%     96.28% # Number of insts issued each cycle
system.cpu0.iq.issued_per_cycle::3           47645797      2.85%     99.12% # Number of insts issued each cycle
system.cpu0.iq.issued_per_cycle::4            9323274      0.56%     99.68% # Number of insts issued each cycle
system.cpu0.iq.issued_per_cycle::5            2715713      0.16%     99.84% # Number of insts issued each cycle
system.cpu0.iq.issued_per_cycle::6            1729640      0.10%     99.95% # Number of insts issued each cycle
system.cpu0.iq.issued_per_cycle::7             716185      0.04%     99.99% # Number of insts issued each cycle
system.cpu0.iq.issued_per_cycle::8             176846      0.01%    100.00% # Number of insts issued each cycle
system.cpu0.iq.issued_per_cycle::overflows            0      0.00%    100.00% # Number of insts issued each cycle
system.cpu0.iq.issued_per_cycle::min_value            0                       # Number of insts issued each cycle
system.cpu0.iq.issued_per_cycle::max_value            8                       # Number of insts issued each cycle
system.cpu0.iq.issued_per_cycle::total     1674318314                       # Number of insts issued each cycle
system.cpu0.iq.rate                          0.560369                       # Inst issue rate
system.cpu0.iq.vec_alu_accesses                     0                       # Number of vector alu accesses
system.cpu0.iq.vec_inst_queue_reads                 0                       # Number of vector instruction queue reads
system.cpu0.iq.vec_inst_queue_wakeup_accesses            0                       # Number of vector instruction queue wakeup accesses
system.cpu0.iq.vec_inst_queue_writes                0                       # Number of vector instruction queue writes
system.cpu0.itb.accesses                            0                       # DTB accesses
system.cpu0.itb.hits                                0                       # DTB hits
system.cpu0.itb.misses                              0                       # DTB misses
system.cpu0.itb.read_accesses                       0                       # DTB read accesses
system.cpu0.itb.read_hits                           0                       # DTB read hits
system.cpu0.itb.read_misses                         0                       # DTB read misses
system.cpu0.itb.write_accesses                      0                       # DTB write accesses
system.cpu0.itb.write_hits                          0                       # DTB write hits
system.cpu0.itb.write_misses                        0                       # DTB write misses
system.cpu0.memDep0.conflictingLoads         15026902                       # Number of conflicting loads.
system.cpu0.memDep0.conflictingStores         1111552                       # Number of conflicting stores.
system.cpu0.memDep0.insertedLoads           322500072                       # Number of loads inserted to the mem dependence unit.
system.cpu0.memDep0.insertedStores          128332018                       # Number of stores inserted to the mem dependence unit.
system.cpu0.misc_regfile_reads                   1666                       # number of misc regfile reads
system.cpu0.misc_regfile_writes                    22                       # number of misc regfile writes
system.cpu0.numCycles                      1853715864                       # number of cpu cycles simulated
system.cpu0.numWorkItemsCompleted                   0                       # number of work items this cpu completed
system.cpu0.numWorkItemsStarted                     0                       # number of work items this cpu started
system.cpu0.quiesceCycles                    16962558                       # Total number of cycles that CPU has spent quiesced or waiting for an interrupt
system.cpu0.rename.BlockCycles              168586004                       # Number of cycles rename is blocking
system.cpu0.rename.CommittedMaps            647534202                       # Number of HB maps that are committed
system.cpu0.rename.IQFullEvents               7111855                       # Number of times rename has blocked due to IQ full
system.cpu0.rename.IdleCycles               736949955                       # Number of cycles rename is idle
system.cpu0.rename.LQFullEvents               9288925                       # Number of times rename has blocked due to LQ full
system.cpu0.rename.ROBFullEvents                19423                       # Number of times rename has blocked due to ROB full
system.cpu0.rename.RenameLookups           1286488653                       # Number of register rename lookups that rename has made
system.cpu0.rename.RenamedInsts            1047689797                       # Number of instructions processed by rename
system.cpu0.rename.RenamedOperands          668172362                       # Number of destination operands rename has renamed
system.cpu0.rename.RunCycles                730588823                       # Number of cycles rename is running
system.cpu0.rename.SQFullEvents              14521898                       # Number of times rename has blocked due to SQ full
system.cpu0.rename.SquashCycles               6937197                       # Number of cycles rename is squashing
system.cpu0.rename.UnblockCycles             30910960                       # Number of cycles rename is unblocking
system.cpu0.rename.UndoneMaps                20638151                       # Number of HB maps that are undone due to squashing
system.cpu0.rename.fp_rename_lookups               54                       # Number of floating rename lookups
system.cpu0.rename.int_rename_lookups      1286488599                       # Number of integer rename lookups
system.cpu0.rename.serializeStallCycles        345375                       # count of cycles rename stalled for serializing inst
system.cpu0.rename.serializingInsts              5071                       # count of serializing insts renamed
system.cpu0.rename.skidInsts                 15743699                       # count of insts added to the skid buffer
system.cpu0.rename.tempSerializingInsts          5071                       # count of temporary serializing insts renamed
system.cpu0.rob.rob_reads                  2668215031                       # The number of ROB reads
system.cpu0.rob.rob_writes                 2083828935                       # The number of ROB writes
system.cpu0.timesIdled                       26402330                       # Number of times that the entire CPU went into an idle state and unscheduled itself
system.cpu0.workload.numSyscalls                 1631                       # Number of system calls
system.cpu1.branchPred.BTBCorrect                   0                       # Number of correct BTB predictions (this stat may not work properly.
system.cpu1.branchPred.BTBHitPct            80.497863                       # BTB Hit Percentage
system.cpu1.branchPred.BTBHits                5985157                       # Number of BTB hits
system.cpu1.branchPred.BTBLookups             7435175                       # Number of BTB lookups
system.cpu1.branchPred.RASInCorrect                 0                       # Number of incorrect RAS predictions.
system.cpu1.branchPred.condIncorrect           791597                       # Number of conditional branches incorrect
system.cpu1.branchPred.condPredicted          9848525                       # Number of conditional branches predicted
system.cpu1.branchPred.indirectHits            228760                       # Number of indirect target hits.
system.cpu1.branchPred.indirectLookups         238918                       # Number of indirect predictor lookups.
system.cpu1.branchPred.indirectMisses           10158                       # Number of indirect misses.
system.cpu1.branchPred.lookups               11177797                       # Number of BP lookups
system.cpu1.branchPred.usedRAS                      0                       # Number of times the RAS was used to get a target.
system.cpu1.branchPredindirectMispredicted        13418                       # Number of mispredicted indirect branches.
system.cpu1.commit.amos                        905827                       # Number of atomic instructions committed
system.cpu1.commit.branchMispredicts           642448                       # The number of times a branch was mispredicted
system.cpu1.commit.branches                   8768575                       # Number of branches committed
system.cpu1.commit.bw_lim_events               835328                       # number cycles where commit BW limit reached
system.cpu1.commit.commitNonSpecStalls        2718098                       # The number of times commit has been forced to stall to communicate backwards
system.cpu1.commit.commitSquashedInsts        4966382                       # The number of squashed insts skipped by commit
system.cpu1.commit.committedInsts            37212509                       # Number of instructions committed
system.cpu1.commit.committedOps              38118508                       # Number of ops (including micro ops) committed
system.cpu1.commit.committed_per_cycle::samples    214343092                       # Number of insts commited each cycle
system.cpu1.commit.committed_per_cycle::mean     0.177839                       # Number of insts commited each cycle
system.cpu1.commit.committed_per_cycle::stdev     0.819097                       # Number of insts commited each cycle
system.cpu1.commit.committed_per_cycle::underflows            0      0.00%      0.00% # Number of insts commited each cycle
system.cpu1.commit.committed_per_cycle::0    198385873     92.56%     92.56% # Number of insts commited each cycle
system.cpu1.commit.committed_per_cycle::1      7714796      3.60%     96.15% # Number of insts commited each cycle
system.cpu1.commit.committed_per_cycle::2      2794267      1.30%     97.46% # Number of insts commited each cycle
system.cpu1.commit.committed_per_cycle::3      2548608      1.19%     98.65% # Number of insts commited each cycle
system.cpu1.commit.committed_per_cycle::4       863377      0.40%     99.05% # Number of insts commited each cycle
system.cpu1.commit.committed_per_cycle::5       242642      0.11%     99.16% # Number of insts commited each cycle
system.cpu1.commit.committed_per_cycle::6       887395      0.41%     99.58% # Number of insts commited each cycle
system.cpu1.commit.committed_per_cycle::7        70806      0.03%     99.61% # Number of insts commited each cycle
system.cpu1.commit.committed_per_cycle::8       835328      0.39%    100.00% # Number of insts commited each cycle
system.cpu1.commit.committed_per_cycle::overflows            0      0.00%    100.00% # Number of insts commited each cycle
system.cpu1.commit.committed_per_cycle::min_value            0                       # Number of insts commited each cycle
system.cpu1.commit.committed_per_cycle::max_value            8                       # Number of insts commited each cycle
system.cpu1.commit.committed_per_cycle::total    214343092                       # Number of insts commited each cycle
system.cpu1.commit.fp_insts                        12                       # Number of committed floating point instructions.
system.cpu1.commit.function_calls              378049                       # Number of function calls committed.
system.cpu1.commit.int_insts                 35828363                       # Number of committed integer instructions.
system.cpu1.commit.loads                     10301133                       # Number of loads committed
system.cpu1.commit.membars                    1811685                       # Number of memory barriers committed
system.cpu1.commit.op_class_0::No_OpClass      1811685      4.75%      4.75% # Class of committed instruction
system.cpu1.commit.op_class_0::IntAlu        22371641     58.69%     63.44% # Class of committed instruction
system.cpu1.commit.op_class_0::IntMult             43      0.00%     63.44% # Class of committed instruction
system.cpu1.commit.op_class_0::IntDiv              86      0.00%     63.44% # Class of committed instruction
system.cpu1.commit.op_class_0::FloatAdd             0      0.00%     63.44% # Class of committed instruction
system.cpu1.commit.op_class_0::FloatCmp             0      0.00%     63.44% # Class of committed instruction
system.cpu1.commit.op_class_0::FloatCvt             0      0.00%     63.44% # Class of committed instruction
system.cpu1.commit.op_class_0::FloatMult            0      0.00%     63.44% # Class of committed instruction
system.cpu1.commit.op_class_0::FloatMultAcc            0      0.00%     63.44% # Class of committed instruction
system.cpu1.commit.op_class_0::FloatDiv             0      0.00%     63.44% # Class of committed instruction
system.cpu1.commit.op_class_0::FloatMisc            0      0.00%     63.44% # Class of committed instruction
system.cpu1.commit.op_class_0::FloatSqrt            0      0.00%     63.44% # Class of committed instruction
system.cpu1.commit.op_class_0::SimdAdd              0      0.00%     63.44% # Class of committed instruction
system.cpu1.commit.op_class_0::SimdAddAcc            0      0.00%     63.44% # Class of committed instruction
system.cpu1.commit.op_class_0::SimdAlu              0      0.00%     63.44% # Class of committed instruction
system.cpu1.commit.op_class_0::SimdCmp              0      0.00%     63.44% # Class of committed instruction
system.cpu1.commit.op_class_0::SimdCvt              0      0.00%     63.44% # Class of committed instruction
system.cpu1.commit.op_class_0::SimdMisc             0      0.00%     63.44% # Class of committed instruction
system.cpu1.commit.op_class_0::SimdMult             0      0.00%     63.44% # Class of committed instruction
system.cpu1.commit.op_class_0::SimdMultAcc            0      0.00%     63.44% # Class of committed instruction
system.cpu1.commit.op_class_0::SimdShift            0      0.00%     63.44% # Class of committed instruction
system.cpu1.commit.op_class_0::SimdShiftAcc            0      0.00%     63.44% # Class of committed instruction
system.cpu1.commit.op_class_0::SimdDiv              0      0.00%     63.44% # Class of committed instruction
system.cpu1.commit.op_class_0::SimdSqrt             0      0.00%     63.44% # Class of committed instruction
system.cpu1.commit.op_class_0::SimdFloatAdd            0      0.00%     63.44% # Class of committed instruction
system.cpu1.commit.op_class_0::SimdFloatAlu            0      0.00%     63.44% # Class of committed instruction
system.cpu1.commit.op_class_0::SimdFloatCmp            0      0.00%     63.44% # Class of committed instruction
system.cpu1.commit.op_class_0::SimdFloatCvt            0      0.00%     63.44% # Class of committed instruction
system.cpu1.commit.op_class_0::SimdFloatDiv            0      0.00%     63.44% # Class of committed instruction
system.cpu1.commit.op_class_0::SimdFloatMisc            0      0.00%     63.44% # Class of committed instruction
system.cpu1.commit.op_class_0::SimdFloatMult            0      0.00%     63.44% # Class of committed instruction
system.cpu1.commit.op_class_0::SimdFloatMultAcc            0      0.00%     63.44% # Class of committed instruction
system.cpu1.commit.op_class_0::SimdFloatSqrt            0      0.00%     63.44% # Class of committed instruction
system.cpu1.commit.op_class_0::SimdReduceAdd            0      0.00%     63.44% # Class of committed instruction
system.cpu1.commit.op_class_0::SimdReduceAlu            0      0.00%     63.44% # Class of committed instruction
system.cpu1.commit.op_class_0::SimdReduceCmp            0      0.00%     63.44% # Class of committed instruction
system.cpu1.commit.op_class_0::SimdFloatReduceAdd            0      0.00%     63.44% # Class of committed instruction
system.cpu1.commit.op_class_0::SimdFloatReduceCmp            0      0.00%     63.44% # Class of committed instruction
system.cpu1.commit.op_class_0::SimdAes              0      0.00%     63.44% # Class of committed instruction
system.cpu1.commit.op_class_0::SimdAesMix            0      0.00%     63.44% # Class of committed instruction
system.cpu1.commit.op_class_0::SimdSha1Hash            0      0.00%     63.44% # Class of committed instruction
system.cpu1.commit.op_class_0::SimdSha1Hash2            0      0.00%     63.44% # Class of committed instruction
system.cpu1.commit.op_class_0::SimdSha256Hash            0      0.00%     63.44% # Class of committed instruction
system.cpu1.commit.op_class_0::SimdSha256Hash2            0      0.00%     63.44% # Class of committed instruction
system.cpu1.commit.op_class_0::SimdShaSigma2            0      0.00%     63.44% # Class of committed instruction
system.cpu1.commit.op_class_0::SimdShaSigma3            0      0.00%     63.44% # Class of committed instruction
system.cpu1.commit.op_class_0::SimdPredAlu            0      0.00%     63.44% # Class of committed instruction
system.cpu1.commit.op_class_0::MemRead       11206960     29.40%     92.84% # Class of committed instruction
system.cpu1.commit.op_class_0::MemWrite       2728081      7.16%    100.00% # Class of committed instruction
system.cpu1.commit.op_class_0::FloatMemRead            0      0.00%    100.00% # Class of committed instruction
system.cpu1.commit.op_class_0::FloatMemWrite           12      0.00%    100.00% # Class of committed instruction
system.cpu1.commit.op_class_0::IprAccess            0      0.00%    100.00% # Class of committed instruction
system.cpu1.commit.op_class_0::InstPrefetch            0      0.00%    100.00% # Class of committed instruction
system.cpu1.commit.op_class_0::total         38118508                       # Class of committed instruction
system.cpu1.commit.refs                      13935053                       # Number of memory references committed
system.cpu1.commit.swp_count                        0                       # Number of s/w prefetches committed
system.cpu1.commit.vec_insts                        0                       # Number of committed Vector instructions.
system.cpu1.committedInsts                   37212509                       # Number of Instructions Simulated
system.cpu1.committedOps                     38118508                       # Number of Ops (including micro ops) Simulated
system.cpu1.cpi                              5.801024                       # CPI: Cycles Per Instruction
system.cpu1.cpi_total                        5.801024                       # CPI: Total CPI of All Threads
system.cpu1.decode.BlockedCycles            189062174                       # Number of cycles decode is blocked
system.cpu1.decode.BranchMispred               158159                       # Number of times decode detected a branch misprediction
system.cpu1.decode.BranchResolved             5719938                       # Number of times decode resolved a branch
system.cpu1.decode.DecodedInsts              45565727                       # Number of instructions handled by decode
system.cpu1.decode.IdleCycles                 5908783                       # Number of cycles decode is idle
system.cpu1.decode.RunCycles                 17631366                       # Number of cycles decode is running
system.cpu1.decode.SquashCycles                643642                       # Number of cycles decode is squashing
system.cpu1.decode.SquashedInsts               365514                       # Number of squashed instructions handled by decode
system.cpu1.decode.UnblockCycles              2094969                       # Number of cycles decode is unblocking
system.cpu1.dtb.accesses                            0                       # DTB accesses
system.cpu1.dtb.hits                                0                       # DTB hits
system.cpu1.dtb.misses                              0                       # DTB misses
system.cpu1.dtb.read_accesses                       0                       # DTB read accesses
system.cpu1.dtb.read_hits                           0                       # DTB read hits
system.cpu1.dtb.read_misses                         0                       # DTB read misses
system.cpu1.dtb.write_accesses                      0                       # DTB write accesses
system.cpu1.dtb.write_hits                          0                       # DTB write hits
system.cpu1.dtb.write_misses                        0                       # DTB write misses
system.cpu1.fetch.Branches                   11177797                       # Number of branches that fetch encountered
system.cpu1.fetch.CacheLines                  5687974                       # Number of cache lines fetched
system.cpu1.fetch.Cycles                    208148730                       # Number of cycles fetch has run and was not squashing or blocked
system.cpu1.fetch.IcacheSquashes                83994                       # Number of outstanding Icache misses that were squashed
system.cpu1.fetch.Insts                      46550191                       # Number of instructions fetch has processed
system.cpu1.fetch.MiscStallCycles                   1                       # Number of cycles fetch has spent waiting on interrupts, or bad addresses, or out of MSHRs
system.cpu1.fetch.SquashCycles                1585582                       # Number of cycles fetch has spent squashing
system.cpu1.fetch.branchRate                 0.051780                       # Number of branch fetches per cycle
system.cpu1.fetch.icacheStallCycles           6399412                       # Number of cycles fetch is stalled on an Icache miss
system.cpu1.fetch.predictedBranches           6213917                       # Number of branches that fetch has predicted taken
system.cpu1.fetch.rate                       0.215639                       # Number of inst fetches per cycle
system.cpu1.fetch.rateDist::samples         215340934                       # Number of instructions fetched each cycle (Total)
system.cpu1.fetch.rateDist::mean             0.220382                       # Number of instructions fetched each cycle (Total)
system.cpu1.fetch.rateDist::stdev            0.647337                       # Number of instructions fetched each cycle (Total)
system.cpu1.fetch.rateDist::underflows              0      0.00%      0.00% # Number of instructions fetched each cycle (Total)
system.cpu1.fetch.rateDist::0               185844889     86.30%     86.30% # Number of instructions fetched each cycle (Total)
system.cpu1.fetch.rateDist::1                17878352      8.30%     94.60% # Number of instructions fetched each cycle (Total)
system.cpu1.fetch.rateDist::2                 7083754      3.29%     97.89% # Number of instructions fetched each cycle (Total)
system.cpu1.fetch.rateDist::3                 3080435      1.43%     99.33% # Number of instructions fetched each cycle (Total)
system.cpu1.fetch.rateDist::4                 1193952      0.55%     99.88% # Number of instructions fetched each cycle (Total)
system.cpu1.fetch.rateDist::5                  197842      0.09%     99.97% # Number of instructions fetched each cycle (Total)
system.cpu1.fetch.rateDist::6                   44232      0.02%     99.99% # Number of instructions fetched each cycle (Total)
system.cpu1.fetch.rateDist::7                      76      0.00%     99.99% # Number of instructions fetched each cycle (Total)
system.cpu1.fetch.rateDist::8                   17402      0.01%    100.00% # Number of instructions fetched each cycle (Total)
system.cpu1.fetch.rateDist::overflows               0      0.00%    100.00% # Number of instructions fetched each cycle (Total)
system.cpu1.fetch.rateDist::min_value               0                       # Number of instructions fetched each cycle (Total)
system.cpu1.fetch.rateDist::max_value               8                       # Number of instructions fetched each cycle (Total)
system.cpu1.fetch.rateDist::total           215340934                       # Number of instructions fetched each cycle (Total)
system.cpu1.fp_regfile_reads                       12                       # number of floating regfile reads
system.cpu1.idleCycles                         529710                       # Total number of cycles that the CPU has spent unscheduled due to idling
system.cpu1.iew.branchMispredicts              686441                       # Number of branch mispredicts detected at execute
system.cpu1.iew.exec_branches                 9435738                       # Number of branches executed
system.cpu1.iew.exec_nop                            0                       # number of nop insts executed
system.cpu1.iew.exec_rate                    0.191672                       # Inst execution rate
system.cpu1.iew.exec_refs                    15064058                       # number of memory reference insts executed
system.cpu1.iew.exec_stores                   3883800                       # Number of stores executed
system.cpu1.iew.exec_swp                            0                       # number of swp insts executed
system.cpu1.iew.iewBlockCycles              163228977                       # Number of cycles IEW is blocking
system.cpu1.iew.iewDispLoadInsts             11494793                       # Number of dispatched load instructions
system.cpu1.iew.iewDispNonSpecInsts            906650                       # Number of dispatched non-speculative instructions
system.cpu1.iew.iewDispSquashedInsts           675714                       # Number of squashed instructions skipped by dispatch
system.cpu1.iew.iewDispStoreInsts             4080003                       # Number of dispatched store instructions
system.cpu1.iew.iewDispatchedInsts           43077551                       # Number of instructions dispatched to IQ
system.cpu1.iew.iewExecLoadInsts             11180258                       # Number of load instructions executed
system.cpu1.iew.iewExecSquashedInsts           697843                       # Number of squashed instructions skipped in execute
system.cpu1.iew.iewExecutedInsts             41376454                       # Number of executed instructions
system.cpu1.iew.iewIQFullEvents                810317                       # Number of times the IQ has become full, causing a stall
system.cpu1.iew.iewIdleCycles                       0                       # Number of cycles IEW is idle
system.cpu1.iew.iewLSQFullEvents               940898                       # Number of times the LSQ has become full, causing a stall
system.cpu1.iew.iewSquashCycles                643642                       # Number of cycles IEW is squashing
system.cpu1.iew.iewUnblockCycles              2737847                       # Number of cycles IEW is unblocking
system.cpu1.iew.lsq.thread0.blockedLoads            0                       # Number of blocked loads due to partial load-store forwarding
system.cpu1.iew.lsq.thread0.cacheBlocked        27590                       # Number of times an access to memory failed due to the cache being blocked
system.cpu1.iew.lsq.thread0.forwLoads          199583                       # Number of loads that had data forwarded from stores
system.cpu1.iew.lsq.thread0.ignoredResponses         5709                       # Number of memory responses ignored because the instruction is squashed
system.cpu1.iew.lsq.thread0.invAddrLoads            0                       # Number of loads ignored due to an invalid address
system.cpu1.iew.lsq.thread0.invAddrSwpfs            0                       # Number of software prefetches ignored due to an invalid address
system.cpu1.iew.lsq.thread0.memOrderViolation         1703                       # Number of memory ordering violations
system.cpu1.iew.lsq.thread0.rescheduledLoads         4667                       # Number of loads that were rescheduled
system.cpu1.iew.lsq.thread0.squashedLoads      1193660                       # Number of loads squashed
system.cpu1.iew.lsq.thread0.squashedStores       446083                       # Number of stores squashed
system.cpu1.iew.memOrderViolationEvents          1703                       # Number of memory order violations
system.cpu1.iew.predictedNotTakenIncorrect       251978                       # Number of branches that were predicted not taken incorrectly
system.cpu1.iew.predictedTakenIncorrect        434463                       # Number of branches that were predicted taken incorrectly
system.cpu1.iew.wb_consumers                 22531026                       # num instructions consuming a value
system.cpu1.iew.wb_count                     40850513                       # cumulative count of insts written-back
system.cpu1.iew.wb_fanout                    0.835110                       # average fanout of values written-back
system.cpu1.iew.wb_producers                 18815887                       # num instructions producing a value
system.cpu1.iew.wb_rate                      0.189236                       # insts written-back per cycle
system.cpu1.iew.wb_sent                      40872192                       # cumulative count of insts sent to commit
system.cpu1.int_regfile_reads                52366723                       # number of integer regfile reads
system.cpu1.int_regfile_writes               26858577                       # number of integer regfile writes
system.cpu1.ipc                              0.172383                       # IPC: Instructions Per Cycle
system.cpu1.ipc_total                        0.172383                       # IPC: Total IPC of All Threads
system.cpu1.iq.FU_type_0::No_OpClass          1811884      4.31%      4.31% # Type of FU issued
system.cpu1.iq.FU_type_0::IntAlu             24966797     59.34%     63.65% # Type of FU issued
system.cpu1.iq.FU_type_0::IntMult                  47      0.00%     63.65% # Type of FU issued
system.cpu1.iq.FU_type_0::IntDiv                   86      0.00%     63.65% # Type of FU issued
system.cpu1.iq.FU_type_0::FloatAdd                  0      0.00%     63.65% # Type of FU issued
system.cpu1.iq.FU_type_0::FloatCmp                  0      0.00%     63.65% # Type of FU issued
system.cpu1.iq.FU_type_0::FloatCvt                  0      0.00%     63.65% # Type of FU issued
system.cpu1.iq.FU_type_0::FloatMult                 0      0.00%     63.65% # Type of FU issued
system.cpu1.iq.FU_type_0::FloatMultAcc              0      0.00%     63.65% # Type of FU issued
system.cpu1.iq.FU_type_0::FloatDiv                  0      0.00%     63.65% # Type of FU issued
system.cpu1.iq.FU_type_0::FloatMisc                 0      0.00%     63.65% # Type of FU issued
system.cpu1.iq.FU_type_0::FloatSqrt                 0      0.00%     63.65% # Type of FU issued
system.cpu1.iq.FU_type_0::SimdAdd                   0      0.00%     63.65% # Type of FU issued
system.cpu1.iq.FU_type_0::SimdAddAcc                0      0.00%     63.65% # Type of FU issued
system.cpu1.iq.FU_type_0::SimdAlu                   0      0.00%     63.65% # Type of FU issued
system.cpu1.iq.FU_type_0::SimdCmp                   0      0.00%     63.65% # Type of FU issued
system.cpu1.iq.FU_type_0::SimdCvt                   0      0.00%     63.65% # Type of FU issued
system.cpu1.iq.FU_type_0::SimdMisc                  0      0.00%     63.65% # Type of FU issued
system.cpu1.iq.FU_type_0::SimdMult                  0      0.00%     63.65% # Type of FU issued
system.cpu1.iq.FU_type_0::SimdMultAcc               0      0.00%     63.65% # Type of FU issued
system.cpu1.iq.FU_type_0::SimdShift                 0      0.00%     63.65% # Type of FU issued
system.cpu1.iq.FU_type_0::SimdShiftAcc              0      0.00%     63.65% # Type of FU issued
system.cpu1.iq.FU_type_0::SimdDiv                   0      0.00%     63.65% # Type of FU issued
system.cpu1.iq.FU_type_0::SimdSqrt                  0      0.00%     63.65% # Type of FU issued
system.cpu1.iq.FU_type_0::SimdFloatAdd              0      0.00%     63.65% # Type of FU issued
system.cpu1.iq.FU_type_0::SimdFloatAlu              0      0.00%     63.65% # Type of FU issued
system.cpu1.iq.FU_type_0::SimdFloatCmp              0      0.00%     63.65% # Type of FU issued
system.cpu1.iq.FU_type_0::SimdFloatCvt              0      0.00%     63.65% # Type of FU issued
system.cpu1.iq.FU_type_0::SimdFloatDiv              0      0.00%     63.65% # Type of FU issued
system.cpu1.iq.FU_type_0::SimdFloatMisc             0      0.00%     63.65% # Type of FU issued
system.cpu1.iq.FU_type_0::SimdFloatMult             0      0.00%     63.65% # Type of FU issued
system.cpu1.iq.FU_type_0::SimdFloatMultAcc            0      0.00%     63.65% # Type of FU issued
system.cpu1.iq.FU_type_0::SimdFloatSqrt             0      0.00%     63.65% # Type of FU issued
system.cpu1.iq.FU_type_0::SimdReduceAdd             0      0.00%     63.65% # Type of FU issued
system.cpu1.iq.FU_type_0::SimdReduceAlu             0      0.00%     63.65% # Type of FU issued
system.cpu1.iq.FU_type_0::SimdReduceCmp             0      0.00%     63.65% # Type of FU issued
system.cpu1.iq.FU_type_0::SimdFloatReduceAdd            0      0.00%     63.65% # Type of FU issued
system.cpu1.iq.FU_type_0::SimdFloatReduceCmp            0      0.00%     63.65% # Type of FU issued
system.cpu1.iq.FU_type_0::SimdAes                   0      0.00%     63.65% # Type of FU issued
system.cpu1.iq.FU_type_0::SimdAesMix                0      0.00%     63.65% # Type of FU issued
system.cpu1.iq.FU_type_0::SimdSha1Hash              0      0.00%     63.65% # Type of FU issued
system.cpu1.iq.FU_type_0::SimdSha1Hash2             0      0.00%     63.65% # Type of FU issued
system.cpu1.iq.FU_type_0::SimdSha256Hash            0      0.00%     63.65% # Type of FU issued
system.cpu1.iq.FU_type_0::SimdSha256Hash2            0      0.00%     63.65% # Type of FU issued
system.cpu1.iq.FU_type_0::SimdShaSigma2             0      0.00%     63.65% # Type of FU issued
system.cpu1.iq.FU_type_0::SimdShaSigma3             0      0.00%     63.65% # Type of FU issued
system.cpu1.iq.FU_type_0::SimdPredAlu               0      0.00%     63.65% # Type of FU issued
system.cpu1.iq.FU_type_0::MemRead            12281925     29.19%     92.84% # Type of FU issued
system.cpu1.iq.FU_type_0::MemWrite            3013546      7.16%    100.00% # Type of FU issued
system.cpu1.iq.FU_type_0::FloatMemRead              0      0.00%    100.00% # Type of FU issued
system.cpu1.iq.FU_type_0::FloatMemWrite            12      0.00%    100.00% # Type of FU issued
system.cpu1.iq.FU_type_0::IprAccess                 0      0.00%    100.00% # Type of FU issued
system.cpu1.iq.FU_type_0::InstPrefetch              0      0.00%    100.00% # Type of FU issued
system.cpu1.iq.FU_type_0::total              42074297                       # Type of FU issued
system.cpu1.iq.fp_alu_accesses                     14                       # Number of floating point alu accesses
system.cpu1.iq.fp_inst_queue_reads                 26                       # Number of floating instruction queue reads
system.cpu1.iq.fp_inst_queue_wakeup_accesses           12                       # Number of floating instruction queue wakeup accesses
system.cpu1.iq.fp_inst_queue_writes                12                       # Number of floating instruction queue writes
system.cpu1.iq.fu_busy_cnt                    1047599                       # FU busy when requested
system.cpu1.iq.fu_busy_rate                  0.024899                       # FU busy rate (busy events/executed inst)
system.cpu1.iq.fu_full::No_OpClass                  0      0.00%      0.00% # attempts to use FU when none available
system.cpu1.iq.fu_full::IntAlu                 199020     19.00%     19.00% # attempts to use FU when none available
system.cpu1.iq.fu_full::IntMult                     0      0.00%     19.00% # attempts to use FU when none available
system.cpu1.iq.fu_full::IntDiv                      0      0.00%     19.00% # attempts to use FU when none available
system.cpu1.iq.fu_full::FloatAdd                    0      0.00%     19.00% # attempts to use FU when none available
system.cpu1.iq.fu_full::FloatCmp                    0      0.00%     19.00% # attempts to use FU when none available
system.cpu1.iq.fu_full::FloatCvt                    0      0.00%     19.00% # attempts to use FU when none available
system.cpu1.iq.fu_full::FloatMult                   0      0.00%     19.00% # attempts to use FU when none available
system.cpu1.iq.fu_full::FloatMultAcc                0      0.00%     19.00% # attempts to use FU when none available
system.cpu1.iq.fu_full::FloatDiv                    0      0.00%     19.00% # attempts to use FU when none available
system.cpu1.iq.fu_full::FloatMisc                   0      0.00%     19.00% # attempts to use FU when none available
system.cpu1.iq.fu_full::FloatSqrt                   0      0.00%     19.00% # attempts to use FU when none available
system.cpu1.iq.fu_full::SimdAdd                     0      0.00%     19.00% # attempts to use FU when none available
system.cpu1.iq.fu_full::SimdAddAcc                  0      0.00%     19.00% # attempts to use FU when none available
system.cpu1.iq.fu_full::SimdAlu                     0      0.00%     19.00% # attempts to use FU when none available
system.cpu1.iq.fu_full::SimdCmp                     0      0.00%     19.00% # attempts to use FU when none available
system.cpu1.iq.fu_full::SimdCvt                     0      0.00%     19.00% # attempts to use FU when none available
system.cpu1.iq.fu_full::SimdMisc                    0      0.00%     19.00% # attempts to use FU when none available
system.cpu1.iq.fu_full::SimdMult                    0      0.00%     19.00% # attempts to use FU when none available
system.cpu1.iq.fu_full::SimdMultAcc                 0      0.00%     19.00% # attempts to use FU when none available
system.cpu1.iq.fu_full::SimdShift                   0      0.00%     19.00% # attempts to use FU when none available
system.cpu1.iq.fu_full::SimdShiftAcc                0      0.00%     19.00% # attempts to use FU when none available
system.cpu1.iq.fu_full::SimdDiv                     0      0.00%     19.00% # attempts to use FU when none available
system.cpu1.iq.fu_full::SimdSqrt                    0      0.00%     19.00% # attempts to use FU when none available
system.cpu1.iq.fu_full::SimdFloatAdd                0      0.00%     19.00% # attempts to use FU when none available
system.cpu1.iq.fu_full::SimdFloatAlu                0      0.00%     19.00% # attempts to use FU when none available
system.cpu1.iq.fu_full::SimdFloatCmp                0      0.00%     19.00% # attempts to use FU when none available
system.cpu1.iq.fu_full::SimdFloatCvt                0      0.00%     19.00% # attempts to use FU when none available
system.cpu1.iq.fu_full::SimdFloatDiv                0      0.00%     19.00% # attempts to use FU when none available
system.cpu1.iq.fu_full::SimdFloatMisc               0      0.00%     19.00% # attempts to use FU when none available
system.cpu1.iq.fu_full::SimdFloatMult               0      0.00%     19.00% # attempts to use FU when none available
system.cpu1.iq.fu_full::SimdFloatMultAcc            0      0.00%     19.00% # attempts to use FU when none available
system.cpu1.iq.fu_full::SimdFloatSqrt               0      0.00%     19.00% # attempts to use FU when none available
system.cpu1.iq.fu_full::SimdReduceAdd               0      0.00%     19.00% # attempts to use FU when none available
system.cpu1.iq.fu_full::SimdReduceAlu               0      0.00%     19.00% # attempts to use FU when none available
system.cpu1.iq.fu_full::SimdReduceCmp               0      0.00%     19.00% # attempts to use FU when none available
system.cpu1.iq.fu_full::SimdFloatReduceAdd            0      0.00%     19.00% # attempts to use FU when none available
system.cpu1.iq.fu_full::SimdFloatReduceCmp            0      0.00%     19.00% # attempts to use FU when none available
system.cpu1.iq.fu_full::SimdAes                     0      0.00%     19.00% # attempts to use FU when none available
system.cpu1.iq.fu_full::SimdAesMix                  0      0.00%     19.00% # attempts to use FU when none available
system.cpu1.iq.fu_full::SimdSha1Hash                0      0.00%     19.00% # attempts to use FU when none available
system.cpu1.iq.fu_full::SimdSha1Hash2               0      0.00%     19.00% # attempts to use FU when none available
system.cpu1.iq.fu_full::SimdSha256Hash              0      0.00%     19.00% # attempts to use FU when none available
system.cpu1.iq.fu_full::SimdSha256Hash2             0      0.00%     19.00% # attempts to use FU when none available
system.cpu1.iq.fu_full::SimdShaSigma2               0      0.00%     19.00% # attempts to use FU when none available
system.cpu1.iq.fu_full::SimdShaSigma3               0      0.00%     19.00% # attempts to use FU when none available
system.cpu1.iq.fu_full::SimdPredAlu                 0      0.00%     19.00% # attempts to use FU when none available
system.cpu1.iq.fu_full::MemRead                751297     71.72%     90.71% # attempts to use FU when none available
system.cpu1.iq.fu_full::MemWrite                97280      9.29%    100.00% # attempts to use FU when none available
[...]
system.cpu1.dcache.WriteReq_mshr_miss_rate::.cpu1.data     0.162745                       # mshr miss rate for WriteReq accesses
system.cpu1.dcache.WriteReq_mshr_miss_rate::total     0.162745                       # mshr miss rate for WriteReq accesses
system.cpu1.dcache.WriteReq_avg_mshr_miss_latency::.cpu1.data 115921.844571                       # average WriteReq mshr miss latency
system.cpu1.dcache.WriteReq_avg_mshr_miss_latency::total 115921.844571                       # average WriteReq mshr miss latency
system.cpu1.dcache.LoadLockedReq_hits::.cpu1.data      1185122                       # number of LoadLockedReq hits
system.cpu1.dcache.LoadLockedReq_hits::total      1185122                       # number of LoadLockedReq hits
system.cpu1.dcache.LoadLockedReq_misses::.cpu1.data         3835                       # number of LoadLockedReq misses
system.cpu1.dcache.LoadLockedReq_misses::total         3835                       # number of LoadLockedReq misses
system.cpu1.dcache.LoadLockedReq_miss_latency::.cpu1.data     72407000                       # number of LoadLockedReq miss cycles
system.cpu1.dcache.LoadLockedReq_miss_latency::total     72407000                       # number of LoadLockedReq miss cycles
system.cpu1.dcache.LoadLockedReq_accesses::.cpu1.data      1188957                       # number of LoadLockedReq accesses(hits+misses)
system.cpu1.dcache.LoadLockedReq_accesses::total      1188957                       # number of LoadLockedReq accesses(hits+misses)
system.cpu1.dcache.LoadLockedReq_miss_rate::.cpu1.data     0.003226                       # miss rate for LoadLockedReq accesses
system.cpu1.dcache.LoadLockedReq_miss_rate::total     0.003226                       # miss rate for LoadLockedReq accesses
system.cpu1.dcache.LoadLockedReq_avg_miss_latency::.cpu1.data 18880.573664                       # average LoadLockedReq miss latency
system.cpu1.dcache.LoadLockedReq_avg_miss_latency::total 18880.573664                       # average LoadLockedReq miss latency
system.cpu1.dcache.LoadLockedReq_mshr_hits::.cpu1.data          338                       # number of LoadLockedReq MSHR hits
system.cpu1.dcache.LoadLockedReq_mshr_hits::total          338                       # number of LoadLockedReq MSHR hits
system.cpu1.dcache.LoadLockedReq_mshr_misses::.cpu1.data         3497                       # number of LoadLockedReq MSHR misses
system.cpu1.dcache.LoadLockedReq_mshr_misses::total         3497                       # number of LoadLockedReq MSHR misses
system.cpu1.dcache.LoadLockedReq_mshr_miss_latency::.cpu1.data     55163500                       # number of LoadLockedReq MSHR miss cycles
system.cpu1.dcache.LoadLockedReq_mshr_miss_latency::total     55163500                       # number of LoadLockedReq MSHR miss cycles
system.cpu1.dcache.LoadLockedReq_mshr_miss_rate::.cpu1.data     0.002941                       # mshr miss rate for LoadLockedReq accesses
system.cpu1.dcache.LoadLockedReq_mshr_miss_rate::total     0.002941                       # mshr miss rate for LoadLockedReq accesses
system.cpu1.dcache.LoadLockedReq_avg_mshr_miss_latency::.cpu1.data 15774.521018                       # average LoadLockedReq mshr miss latency
system.cpu1.dcache.LoadLockedReq_avg_mshr_miss_latency::total 15774.521018                       # average LoadLockedReq mshr miss latency
system.cpu1.dcache.StoreCondReq_hits::.cpu1.data      1177465                       # number of StoreCondReq hits
system.cpu1.dcache.StoreCondReq_hits::total      1177465                       # number of StoreCondReq hits
system.cpu1.dcache.StoreCondReq_misses::.cpu1.data         7905                       # number of StoreCondReq misses
system.cpu1.dcache.StoreCondReq_misses::total         7905                       # number of StoreCondReq misses
system.cpu1.dcache.StoreCondReq_miss_latency::.cpu1.data     80132500                       # number of StoreCondReq miss cycles
system.cpu1.dcache.StoreCondReq_miss_latency::total     80132500                       # number of StoreCondReq miss cycles
system.cpu1.dcache.StoreCondReq_accesses::.cpu1.data      1185370                       # number of StoreCondReq accesses(hits+misses)
system.cpu1.dcache.StoreCondReq_accesses::total      1185370                       # number of StoreCondReq accesses(hits+misses)
system.cpu1.dcache.StoreCondReq_miss_rate::.cpu1.data     0.006669                       # miss rate for StoreCondReq accesses
system.cpu1.dcache.StoreCondReq_miss_rate::total     0.006669                       # miss rate for StoreCondReq accesses
system.cpu1.dcache.StoreCondReq_avg_miss_latency::.cpu1.data 10136.938646                       # average StoreCondReq miss latency
system.cpu1.dcache.StoreCondReq_avg_miss_latency::total 10136.938646                       # average StoreCondReq miss latency
system.cpu1.dcache.StoreCondReq_mshr_misses::.cpu1.data         7759                       # number of StoreCondReq MSHR misses
system.cpu1.dcache.StoreCondReq_mshr_misses::total         7759                       # number of StoreCondReq MSHR misses
system.cpu1.dcache.StoreCondReq_mshr_miss_latency::.cpu1.data     72670500                       # number of StoreCondReq MSHR miss cycles
system.cpu1.dcache.StoreCondReq_mshr_miss_latency::total     72670500                       # number of StoreCondReq MSHR miss cycles
system.cpu1.dcache.StoreCondReq_mshr_miss_rate::.cpu1.data     0.006546                       # mshr miss rate for StoreCondReq accesses
system.cpu1.dcache.StoreCondReq_mshr_miss_rate::total     0.006546                       # mshr miss rate for StoreCondReq accesses
system.cpu1.dcache.StoreCondReq_avg_mshr_miss_latency::.cpu1.data  9365.962109                       # average StoreCondReq mshr miss latency
system.cpu1.dcache.StoreCondReq_avg_mshr_miss_latency::total  9365.962109                       # average StoreCondReq mshr miss latency
system.cpu1.dcache.StoreCondFailReq_miss_latency::.cpu1.data      4096500                       # number of StoreCondFailReq miss cycles
system.cpu1.dcache.StoreCondFailReq_miss_latency::total      4096500                       # number of StoreCondFailReq miss cycles
system.cpu1.dcache.StoreCondFailReq_avg_miss_latency::.cpu1.data          inf                       # average StoreCondFailReq miss latency
system.cpu1.dcache.StoreCondFailReq_avg_miss_latency::total          inf                       # average StoreCondFailReq miss latency
system.cpu1.dcache.StoreCondFailReq_mshr_miss_latency::.cpu1.data      3799500                       # number of StoreCondFailReq MSHR miss cycles
system.cpu1.dcache.StoreCondFailReq_mshr_miss_latency::total      3799500                       # number of StoreCondFailReq MSHR miss cycles
system.cpu1.dcache.StoreCondFailReq_avg_mshr_miss_latency::.cpu1.data          inf                       # average StoreCondFailReq mshr miss latency
system.cpu1.dcache.StoreCondFailReq_avg_mshr_miss_latency::total          inf                       # average StoreCondFailReq mshr miss latency
system.cpu1.dcache.SwapReq_hits::.cpu1.data       210966                       # number of SwapReq hits
system.cpu1.dcache.SwapReq_hits::total         210966                       # number of SwapReq hits
system.cpu1.dcache.SwapReq_misses::.cpu1.data       671826                       # number of SwapReq misses
system.cpu1.dcache.SwapReq_misses::total       671826                       # number of SwapReq misses
system.cpu1.dcache.SwapReq_miss_latency::.cpu1.data  65999630726                       # number of SwapReq miss cycles
system.cpu1.dcache.SwapReq_miss_latency::total  65999630726                       # number of SwapReq miss cycles
system.cpu1.dcache.SwapReq_accesses::.cpu1.data       882792                       # number of SwapReq accesses(hits+misses)
system.cpu1.dcache.SwapReq_accesses::total       882792                       # number of SwapReq accesses(hits+misses)
system.cpu1.dcache.SwapReq_miss_rate::.cpu1.data     0.761024                       # miss rate for SwapReq accesses
system.cpu1.dcache.SwapReq_miss_rate::total     0.761024                       # miss rate for SwapReq accesses
system.cpu1.dcache.SwapReq_avg_miss_latency::.cpu1.data 98239.173128                       # average SwapReq miss latency
system.cpu1.dcache.SwapReq_avg_miss_latency::total 98239.173128                       # average SwapReq miss latency
system.cpu1.dcache.SwapReq_mshr_hits::.cpu1.data            2                       # number of SwapReq MSHR hits
system.cpu1.dcache.SwapReq_mshr_hits::total            2                       # number of SwapReq MSHR hits
system.cpu1.dcache.SwapReq_mshr_misses::.cpu1.data       671824                       # number of SwapReq MSHR misses
system.cpu1.dcache.SwapReq_mshr_misses::total       671824                       # number of SwapReq MSHR misses
system.cpu1.dcache.SwapReq_mshr_miss_latency::.cpu1.data  65327804726                       # number of SwapReq MSHR miss cycles
system.cpu1.dcache.SwapReq_mshr_miss_latency::total  65327804726                       # number of SwapReq MSHR miss cycles
system.cpu1.dcache.SwapReq_mshr_miss_rate::.cpu1.data     0.761022                       # mshr miss rate for SwapReq accesses
system.cpu1.dcache.SwapReq_mshr_miss_rate::total     0.761022                       # mshr miss rate for SwapReq accesses
system.cpu1.dcache.SwapReq_avg_mshr_miss_latency::.cpu1.data 97239.462606                       # average SwapReq mshr miss latency
system.cpu1.dcache.SwapReq_avg_mshr_miss_latency::total 97239.462606                       # average SwapReq mshr miss latency
system.cpu1.dcache.tags.pwrStateResidencyTicks::UNDEFINED 415011109000                       # Cumulative time (in ticks) in various power states
system.cpu1.dcache.tags.tagsinuse           31.536656                       # Cycle average of tags in use
system.cpu1.dcache.tags.total_refs           43716442                       # Total number of references to valid blocks.
system.cpu1.dcache.tags.sampled_refs          7446348                       # Sample count of references to valid blocks.
system.cpu1.dcache.tags.avg_refs             5.870857                       # Average number of references to valid blocks.
system.cpu1.dcache.tags.warmup_cycle                0                       # Cycle when the warmup percentage was hit.
system.cpu1.dcache.tags.occ_blocks::.cpu1.data    31.536656                       # Average occupied blocks per requestor
system.cpu1.dcache.tags.occ_percent::.cpu1.data     0.985521                       # Average percentage of cache occupancy
system.cpu1.dcache.tags.occ_percent::total     0.985521                       # Average percentage of cache occupancy
system.cpu1.dcache.tags.occ_task_id_blocks::1024           27                       # Occupied blocks per task id
system.cpu1.dcache.tags.age_task_id_blocks_1024::1           27                       # Occupied blocks per task id
system.cpu1.dcache.tags.occ_task_id_percent::1024     0.843750                       # Percentage of cache occupancy per task id
system.cpu1.dcache.tags.tag_accesses        105538759                       # Number of tag accesses
system.cpu1.dcache.tags.data_accesses       105538759                       # Number of data accesses
system.cpu_clk_domain.clock                       500                       # Clock period in ticks
system.tol2bus.pwrStateResidencyTicks::UNDEFINED 415011109000                       # Cumulative time (in ticks) in various power states
system.tol2bus.trans_dist::ReadResp          25861009                       # Transaction distribution
system.tol2bus.trans_dist::ReadRespWithInvalidate           27                       # Transaction distribution
system.tol2bus.trans_dist::WritebackDirty     12030411                       # Transaction distribution
system.tol2bus.trans_dist::WritebackClean     23690766                       # Transaction distribution
system.tol2bus.trans_dist::CleanEvict        45149988                       # Transaction distribution
system.tol2bus.trans_dist::UpgradeReq           27649                       # Transaction distribution
system.tol2bus.trans_dist::SCUpgradeReq         30372                       # Transaction distribution
system.tol2bus.trans_dist::UpgradeResp          58021                       # Transaction distribution
system.tol2bus.trans_dist::SCUpgradeFailReq         1015                       # Transaction distribution
system.tol2bus.trans_dist::UpgradeFailResp         1015                       # Transaction distribution
system.tol2bus.trans_dist::ReadExReq          4264906                       # Transaction distribution
system.tol2bus.trans_dist::ReadExResp         4264909                       # Transaction distribution
system.tol2bus.trans_dist::ReadCleanReq        225625                       # Transaction distribution
system.tol2bus.trans_dist::ReadSharedReq     25635412                       # Transaction distribution
system.tol2bus.trans_dist::InvalidateReq           32                       # Transaction distribution
system.tol2bus.trans_dist::InvalidateResp           32                       # Transaction distribution
system.tol2bus.pkt_count_system.cpu0.icache.mem_side::system.l2.cpu_side       259431                       # Packet count per connected master and slave (bytes)
system.tol2bus.pkt_count_system.cpu0.dcache.mem_side::system.l2.cpu_side     22347663                       # Packet count per connected master and slave (bytes)
system.tol2bus.pkt_count_system.cpu1.icache.mem_side::system.l2.cpu_side       139701                       # Packet count per connected master and slave (bytes)
system.tol2bus.pkt_count_system.cpu1.dcache.mem_side::system.l2.cpu_side     22282969                       # Packet count per connected master and slave (bytes)
system.tol2bus.pkt_count_system.cpu2.icache.mem_side::system.l2.cpu_side       138597                       # Packet count per connected master and slave (bytes)
system.tol2bus.pkt_count_system.cpu2.dcache.mem_side::system.l2.cpu_side     22475393                       # Packet count per connected master and slave (bytes)
system.tol2bus.pkt_count_system.cpu3.icache.mem_side::system.l2.cpu_side       139143                       # Packet count per connected master and slave (bytes)
system.tol2bus.pkt_count_system.cpu3.dcache.mem_side::system.l2.cpu_side     22380054                       # Packet count per connected master and slave (bytes)
system.tol2bus.pkt_count::total              90162951                       # Packet count per connected master and slave (bytes)
system.tol2bus.pkt_size_system.cpu0.icache.mem_side::system.l2.cpu_side     11068992                       # Cumulative packet size per connected master and slave (bytes)
system.tol2bus.pkt_size_system.cpu0.dcache.mem_side::system.l2.cpu_side    951168768                       # Cumulative packet size per connected master and slave (bytes)
system.tol2bus.pkt_size_system.cpu1.icache.mem_side::system.l2.cpu_side      5960576                       # Cumulative packet size per connected master and slave (bytes)
system.tol2bus.pkt_size_system.cpu1.dcache.mem_side::system.l2.cpu_side    948367808                       # Cumulative packet size per connected master and slave (bytes)
system.tol2bus.pkt_size_system.cpu2.icache.mem_side::system.l2.cpu_side      5913472                       # Cumulative packet size per connected master and slave (bytes)
system.tol2bus.pkt_size_system.cpu2.dcache.mem_side::system.l2.cpu_side    956609600                       # Cumulative packet size per connected master and slave (bytes)
system.tol2bus.pkt_size_system.cpu3.icache.mem_side::system.l2.cpu_side      5936768                       # Cumulative packet size per connected master and slave (bytes)
system.tol2bus.pkt_size_system.cpu3.dcache.mem_side::system.l2.cpu_side    952480448                       # Cumulative packet size per connected master and slave (bytes)
system.tol2bus.pkt_size::total             3837506432                       # Cumulative packet size per connected master and slave (bytes)
system.tol2bus.snoops                        51078238                       # Total snoops (count)
system.tol2bus.snoopTraffic                 376774336                       # Total snoop traffic (bytes)
system.tol2bus.snoop_fanout::samples         81074160                       # Request fanout histogram
system.tol2bus.snoop_fanout::mean            0.384794                       # Request fanout histogram
system.tol2bus.snoop_fanout::stdev           0.624686                       # Request fanout histogram
system.tol2bus.snoop_fanout::underflows             0      0.00%      0.00% # Request fanout histogram
system.tol2bus.snoop_fanout::0               53891438     66.47%     66.47% # Request fanout histogram
system.tol2bus.snoop_fanout::1               24954866     30.78%     97.25% # Request fanout histogram
system.tol2bus.snoop_fanout::2                 863788      1.07%     98.32% # Request fanout histogram
system.tol2bus.snoop_fanout::3                 941852      1.16%     99.48% # Request fanout histogram
system.tol2bus.snoop_fanout::4                 422210      0.52%    100.00% # Request fanout histogram
system.tol2bus.snoop_fanout::5                      6      0.00%    100.00% # Request fanout histogram
system.tol2bus.snoop_fanout::6                      0      0.00%    100.00% # Request fanout histogram
system.tol2bus.snoop_fanout::7                      0      0.00%    100.00% # Request fanout histogram
system.tol2bus.snoop_fanout::8                      0      0.00%    100.00% # Request fanout histogram
system.tol2bus.snoop_fanout::overflows              0      0.00%    100.00% # Request fanout histogram
system.tol2bus.snoop_fanout::min_value              0                       # Request fanout histogram
system.tol2bus.snoop_fanout::max_value              5                       # Request fanout histogram
system.tol2bus.snoop_fanout::total           81074160                       # Request fanout histogram
system.tol2bus.reqLayer0.occupancy        60065947662                       # Layer occupancy (ticks)
system.tol2bus.reqLayer0.utilization             14.5                       # Layer utilization (%)
system.tol2bus.respLayer5.occupancy       11295827294                       # Layer occupancy (ticks)
system.tol2bus.respLayer5.utilization             2.7                       # Layer utilization (%)
system.tol2bus.respLayer4.occupancy          71577078                       # Layer occupancy (ticks)
system.tol2bus.respLayer4.utilization             0.0                       # Layer utilization (%)
system.tol2bus.respLayer7.occupancy       11249366576                       # Layer occupancy (ticks)
system.tol2bus.respLayer7.utilization             2.7                       # Layer utilization (%)
system.tol2bus.respLayer6.occupancy          71868512                       # Layer occupancy (ticks)
system.tol2bus.respLayer6.utilization             0.0                       # Layer utilization (%)
system.tol2bus.respLayer1.occupancy       11229891858                       # Layer occupancy (ticks)
system.tol2bus.respLayer1.utilization             2.7                       # Layer utilization (%)
system.tol2bus.respLayer0.occupancy         131146586                       # Layer occupancy (ticks)
system.tol2bus.respLayer0.utilization             0.0                       # Layer utilization (%)
system.tol2bus.respLayer3.occupancy       11200295417                       # Layer occupancy (ticks)
system.tol2bus.respLayer3.utilization             2.7                       # Layer utilization (%)
system.tol2bus.respLayer2.occupancy          72217928                       # Layer occupancy (ticks)
system.tol2bus.respLayer2.utilization             0.0                       # Layer utilization (%)

---------- End Simulation Statistics   ----------
