
---------- Begin Simulation Statistics ----------
final_tick                               519618902500                       # Number of ticks from beginning of simulation (restored from checkpoints and never reset)
host_inst_rate                                 101746                       # Simulator instruction rate (inst/s)
host_mem_usage                                 738056                       # Number of bytes of host memory used
host_op_rate                                   102084                       # Simulator op (including micro ops) rate (op/s)
host_seconds                                  6028.65                       # Real time elapsed on the host
host_tick_rate                               86191633                       # Simulator tick rate (ticks/s)
sim_freq                                 1000000000000                       # Frequency of simulated ticks
sim_insts                                   613392192                       # Number of instructions simulated
sim_ops                                     615430940                       # Number of ops (including micro ops) simulated
sim_seconds                                  0.519619                       # Number of seconds simulated
sim_ticks                                519618902500                       # Number of ticks simulated
system.cpu0.branchPred.BTBCorrect                   0                       # Number of correct BTB predictions (this stat may not work properly.
system.cpu0.branchPred.BTBHitPct            87.091220                       # BTB Hit Percentage
system.cpu0.branchPred.BTBHits               79283698                       # Number of BTB hits
system.cpu0.branchPred.BTBLookups            91035236                       # Number of BTB lookups
system.cpu0.branchPred.RASInCorrect                 0                       # Number of incorrect RAS predictions.
system.cpu0.branchPred.condIncorrect         10042746                       # Number of conditional branches incorrect
system.cpu0.branchPred.condPredicted        121801538                       # Number of conditional branches predicted
system.cpu0.branchPred.indirectHits          11448275                       # Number of indirect target hits.
system.cpu0.branchPred.indirectLookups       11583859                       # Number of indirect predictor lookups.
system.cpu0.branchPred.indirectMisses          135584                       # Number of indirect misses.
system.cpu0.branchPred.lookups              157622806                       # Number of BP lookups
system.cpu0.branchPred.usedRAS                      0                       # Number of times the RAS was used to get a target.
system.cpu0.branchPredindirectMispredicted      1052921                       # Number of mispredicted indirect branches.
system.cpu0.commit.amos                        509397                       # Number of atomic instructions committed
system.cpu0.commit.branchMispredicts          6366971                       # The number of times a branch was mispredicted
system.cpu0.commit.branches                 138966145                       # Number of branches committed
system.cpu0.commit.bw_lim_events             17315853                       # number cycles where commit BW limit reached
system.cpu0.commit.commitNonSpecStalls        1532371                       # The number of times commit has been forced to stall to communicate backwards
system.cpu0.commit.commitSquashedInsts       61258136                       # The number of squashed insts skipped by commit
system.cpu0.commit.committedInsts           561783464                       # Number of instructions committed
system.cpu0.commit.committedOps             562294136                       # Number of ops (including micro ops) committed
system.cpu0.commit.committed_per_cycle::samples    902567046                       # Number of insts commited each cycle
system.cpu0.commit.committed_per_cycle::mean     0.622994                       # Number of insts commited each cycle
system.cpu0.commit.committed_per_cycle::stdev     1.421919                       # Number of insts commited each cycle
system.cpu0.commit.committed_per_cycle::underflows            0      0.00%      0.00% # Number of insts commited each cycle
system.cpu0.commit.committed_per_cycle::0    639283269     70.83%     70.83% # Number of insts commited each cycle
system.cpu0.commit.committed_per_cycle::1    155871821     17.27%     88.10% # Number of insts commited each cycle
system.cpu0.commit.committed_per_cycle::2     36017541      3.99%     92.09% # Number of insts commited each cycle
system.cpu0.commit.committed_per_cycle::3     34439441      3.82%     95.91% # Number of insts commited each cycle
system.cpu0.commit.committed_per_cycle::4     11665690      1.29%     97.20% # Number of insts commited each cycle
system.cpu0.commit.committed_per_cycle::5      4427911      0.49%     97.69% # Number of insts commited each cycle
system.cpu0.commit.committed_per_cycle::6      1078869      0.12%     97.81% # Number of insts commited each cycle
system.cpu0.commit.committed_per_cycle::7      2466651      0.27%     98.08% # Number of insts commited each cycle
system.cpu0.commit.committed_per_cycle::8     17315853      1.92%    100.00% # Number of insts commited each cycle
system.cpu0.commit.committed_per_cycle::overflows            0      0.00%    100.00% # Number of insts commited each cycle
system.cpu0.commit.committed_per_cycle::min_value            0                       # Number of insts commited each cycle
system.cpu0.commit.committed_per_cycle::max_value            8                       # Number of insts commited each cycle
system.cpu0.commit.committed_per_cycle::total    902567046                       # Number of insts commited each cycle
system.cpu0.commit.fp_insts                        50                       # Number of committed floating point instructions.
system.cpu0.commit.function_calls            11672103                       # Number of function calls committed.
system.cpu0.commit.int_insts                543430608                       # Number of committed integer instructions.
system.cpu0.commit.loads                    174756085                       # Number of loads committed
system.cpu0.commit.membars                    1019953                       # Number of memory barriers committed
system.cpu0.commit.op_class_0::No_OpClass      1019959      0.18%      0.18% # Class of committed instruction
system.cpu0.commit.op_class_0::IntAlu       311041453     55.32%     55.50% # Class of committed instruction
system.cpu0.commit.op_class_0::IntMult        4137156      0.74%     56.23% # Class of committed instruction
system.cpu0.commit.op_class_0::IntDiv         1017773      0.18%     56.41% # Class of committed instruction
system.cpu0.commit.op_class_0::FloatAdd             0      0.00%     56.41% # Class of committed instruction
system.cpu0.commit.op_class_0::FloatCmp             4      0.00%     56.41% # Class of committed instruction
system.cpu0.commit.op_class_0::FloatCvt            12      0.00%     56.41% # Class of committed instruction
system.cpu0.commit.op_class_0::FloatMult            0      0.00%     56.41% # Class of committed instruction
system.cpu0.commit.op_class_0::FloatMultAcc            0      0.00%     56.41% # Class of committed instruction
system.cpu0.commit.op_class_0::FloatDiv             2      0.00%     56.41% # Class of committed instruction
system.cpu0.commit.op_class_0::FloatMisc            4      0.00%     56.41% # Class of committed instruction
system.cpu0.commit.op_class_0::FloatSqrt            0      0.00%     56.41% # Class of committed instruction
system.cpu0.commit.op_class_0::SimdAdd              0      0.00%     56.41% # Class of committed instruction
system.cpu0.commit.op_class_0::SimdAddAcc            0      0.00%     56.41% # Class of committed instruction
system.cpu0.commit.op_class_0::SimdAlu              0      0.00%     56.41% # Class of committed instruction
system.cpu0.commit.op_class_0::SimdCmp              0      0.00%     56.41% # Class of committed instruction
system.cpu0.commit.op_class_0::SimdCvt              0      0.00%     56.41% # Class of committed instruction
system.cpu0.commit.op_class_0::SimdMisc             0      0.00%     56.41% # Class of committed instruction
system.cpu0.commit.op_class_0::SimdMult             0      0.00%     56.41% # Class of committed instruction
system.cpu0.commit.op_class_0::SimdMultAcc            0      0.00%     56.41% # Class of committed instruction
system.cpu0.commit.op_class_0::SimdShift            0      0.00%     56.41% # Class of committed instruction
system.cpu0.commit.op_class_0::SimdShiftAcc            0      0.00%     56.41% # Class of committed instruction
system.cpu0.commit.op_class_0::SimdDiv              0      0.00%     56.41% # Class of committed instruction
system.cpu0.commit.op_class_0::SimdSqrt             0      0.00%     56.41% # Class of committed instruction
system.cpu0.commit.op_class_0::SimdFloatAdd            0      0.00%     56.41% # Class of committed instruction
system.cpu0.commit.op_class_0::SimdFloatAlu            0      0.00%     56.41% # Class of committed instruction
system.cpu0.commit.op_class_0::SimdFloatCmp            0      0.00%     56.41% # Class of committed instruction
system.cpu0.commit.op_class_0::SimdFloatCvt            0      0.00%     56.41% # Class of committed instruction
system.cpu0.commit.op_class_0::SimdFloatDiv            0      0.00%     56.41% # Class of committed instruction
system.cpu0.commit.op_class_0::SimdFloatMisc            0      0.00%     56.41% # Class of committed instruction
system.cpu0.commit.op_class_0::SimdFloatMult            0      0.00%     56.41% # Class of committed instruction
system.cpu0.commit.op_class_0::SimdFloatMultAcc            0      0.00%     56.41% # Class of committed instruction
system.cpu0.commit.op_class_0::SimdFloatSqrt            0      0.00%     56.41% # Class of committed instruction
system.cpu0.commit.op_class_0::SimdReduceAdd            0      0.00%     56.41% # Class of committed instruction
system.cpu0.commit.op_class_0::SimdReduceAlu            0      0.00%     56.41% # Class of committed instruction
system.cpu0.commit.op_class_0::SimdReduceCmp            0      0.00%     56.41% # Class of committed instruction
system.cpu0.commit.op_class_0::SimdFloatReduceAdd            0      0.00%     56.41% # Class of committed instruction
system.cpu0.commit.op_class_0::SimdFloatReduceCmp            0      0.00%     56.41% # Class of committed instruction
system.cpu0.commit.op_class_0::SimdAes              0      0.00%     56.41% # Class of committed instruction
system.cpu0.commit.op_class_0::SimdAesMix            0      0.00%     56.41% # Class of committed instruction
system.cpu0.commit.op_class_0::SimdSha1Hash            0      0.00%     56.41% # Class of committed instruction
system.cpu0.commit.op_class_0::SimdSha1Hash2            0      0.00%     56.41% # Class of committed instruction
system.cpu0.commit.op_class_0::SimdSha256Hash            0      0.00%     56.41% # Class of committed instruction
system.cpu0.commit.op_class_0::SimdSha256Hash2            0      0.00%     56.41% # Class of committed instruction
system.cpu0.commit.op_class_0::SimdShaSigma2            0      0.00%     56.41% # Class of committed instruction
system.cpu0.commit.op_class_0::SimdShaSigma3            0      0.00%     56.41% # Class of committed instruction
system.cpu0.commit.op_class_0::SimdPredAlu            0      0.00%     56.41% # Class of committed instruction
system.cpu0.commit.op_class_0::MemRead      175265474     31.17%     87.58% # Class of committed instruction
system.cpu0.commit.op_class_0::MemWrite      69812271     12.42%    100.00% # Class of committed instruction
system.cpu0.commit.op_class_0::FloatMemRead            8      0.00%    100.00% # Class of committed instruction
system.cpu0.commit.op_class_0::FloatMemWrite           20      0.00%    100.00% # Class of committed instruction
system.cpu0.commit.op_class_0::IprAccess            0      0.00%    100.00% # Class of committed instruction
system.cpu0.commit.op_class_0::InstPrefetch            0      0.00%    100.00% # Class of committed instruction
system.cpu0.commit.op_class_0::total        562294136                       # Class of committed instruction
system.cpu0.commit.refs                     245077773                       # Number of memory references committed
system.cpu0.commit.swp_count                        0                       # Number of s/w prefetches committed
system.cpu0.commit.vec_insts                        0                       # Number of committed Vector instructions.
system.cpu0.committedInsts                  561783464                       # Number of Instructions Simulated
system.cpu0.committedOps                    562294136                       # Number of Ops (including micro ops) Simulated
system.cpu0.cpi                              1.825412                       # CPI: Cycles Per Instruction
system.cpu0.cpi_total                        1.825412                       # CPI: Total CPI of All Threads
system.cpu0.decode.BlockedCycles            102627435                       # Number of cycles decode is blocked
system.cpu0.decode.BranchMispred              3680411                       # Number of times decode detected a branch misprediction
system.cpu0.decode.BranchResolved            77214954                       # Number of times decode resolved a branch
system.cpu0.decode.DecodedInsts             638934997                       # Number of instructions handled by decode
system.cpu0.decode.IdleCycles               362289555                       # Number of cycles decode is idle
system.cpu0.decode.RunCycles                440730200                       # Number of cycles decode is running
system.cpu0.decode.SquashCycles               6371911                       # Number of cycles decode is squashing
system.cpu0.decode.SquashedInsts              9856500                       # Number of squashed instructions handled by decode
system.cpu0.decode.UnblockCycles              2764544                       # Number of cycles decode is unblocking
system.cpu0.dtb.accesses                            0                       # DTB accesses
system.cpu0.dtb.hits                                0                       # DTB hits
system.cpu0.dtb.misses                              0                       # DTB misses
system.cpu0.dtb.read_accesses                       0                       # DTB read accesses
system.cpu0.dtb.read_hits                           0                       # DTB read hits
system.cpu0.dtb.read_misses                         0                       # DTB read misses
system.cpu0.dtb.write_accesses                      0                       # DTB write accesses
system.cpu0.dtb.write_hits                          0                       # DTB write hits
system.cpu0.dtb.write_misses                        0                       # DTB write misses
system.cpu0.fetch.Branches                  157622806                       # Number of branches that fetch encountered
system.cpu0.fetch.CacheLines                105245434                       # Number of cache lines fetched
system.cpu0.fetch.Cycles                    551545268                       # Number of cycles fetch has run and was not squashing or blocked
system.cpu0.fetch.IcacheSquashes              2928070                       # Number of outstanding Icache misses that were squashed
system.cpu0.fetch.IcacheWaitRetryStallCycles          120                       # Number of stall cycles due to full MSHR
system.cpu0.fetch.Insts                     662251486                       # Number of instructions fetch has processed
system.cpu0.fetch.MiscStallCycles                  27                       # Number of cycles fetch has spent waiting on interrupts, or bad addresses, or out of MSHRs
system.cpu0.fetch.PendingTrapStallCycles          110                       # Number of stall cycles due to pending traps
system.cpu0.fetch.SquashCycles               20095406                       # Number of cycles fetch has spent squashing
system.cpu0.fetch.branchRate                 0.153705                       # Number of branch fetches per cycle
system.cpu0.fetch.icacheStallCycles         353190417                       # Number of cycles fetch is stalled on an Icache miss
system.cpu0.fetch.predictedBranches          90731973                       # Number of branches that fetch has predicted taken
system.cpu0.fetch.rate                       0.645793                       # Number of inst fetches per cycle
system.cpu0.fetch.rateDist::samples         914783645                       # Number of instructions fetched each cycle (Total)
system.cpu0.fetch.rateDist::mean             0.725460                       # Number of instructions fetched each cycle (Total)
system.cpu0.fetch.rateDist::stdev            0.942486                       # Number of instructions fetched each cycle (Total)
system.cpu0.fetch.rateDist::underflows              0      0.00%      0.00% # Number of instructions fetched each cycle (Total)
system.cpu0.fetch.rateDist::0               451392155     49.34%     49.34% # Number of instructions fetched each cycle (Total)
system.cpu0.fetch.rateDist::1               342604209     37.45%     86.80% # Number of instructions fetched each cycle (Total)
system.cpu0.fetch.rateDist::2                62911774      6.88%     93.67% # Number of instructions fetched each cycle (Total)
system.cpu0.fetch.rateDist::3                43542350      4.76%     98.43% # Number of instructions fetched each cycle (Total)
system.cpu0.fetch.rateDist::4                10666957      1.17%     99.60% # Number of instructions fetched each cycle (Total)
system.cpu0.fetch.rateDist::5                 2122643      0.23%     99.83% # Number of instructions fetched each cycle (Total)
system.cpu0.fetch.rateDist::6                  522232      0.06%     99.89% # Number of instructions fetched each cycle (Total)
system.cpu0.fetch.rateDist::7                     449      0.00%     99.89% # Number of instructions fetched each cycle (Total)
system.cpu0.fetch.rateDist::8                 1020876      0.11%    100.00% # Number of instructions fetched each cycle (Total)
system.cpu0.fetch.rateDist::overflows               0      0.00%    100.00% # Number of instructions fetched each cycle (Total)
system.cpu0.fetch.rateDist::min_value               0                       # Number of instructions fetched each cycle (Total)
system.cpu0.fetch.rateDist::max_value               8                       # Number of instructions fetched each cycle (Total)
system.cpu0.fetch.rateDist::total           914783645                       # Number of instructions fetched each cycle (Total)
system.cpu0.fp_regfile_reads                       44                       # number of floating regfile reads
system.cpu0.fp_regfile_writes                      23                       # number of floating regfile writes
system.cpu0.idleCycles                      110702750                       # Total number of cycles that the CPU has spent unscheduled due to idling
system.cpu0.iew.branchMispredicts             6480046                       # Number of branch mispredicts detected at execute
system.cpu0.iew.exec_branches               146932537                       # Number of branches executed
system.cpu0.iew.exec_nop                            0                       # number of nop insts executed
system.cpu0.iew.exec_rate                    0.595614                       # Inst execution rate
system.cpu0.iew.exec_refs                   273964004                       # number of memory reference insts executed
system.cpu0.iew.exec_stores                  76591604                       # Number of stores executed
system.cpu0.iew.exec_swp                            0                       # number of swp insts executed
system.cpu0.iew.iewBlockCycles               78965367                       # Number of cycles IEW is blocking
system.cpu0.iew.iewDispLoadInsts            199665941                       # Number of dispatched load instructions
system.cpu0.iew.iewDispNonSpecInsts           1017283                       # Number of dispatched non-speculative instructions
system.cpu0.iew.iewDispSquashedInsts          3235907                       # Number of squashed instructions skipped by dispatch
system.cpu0.iew.iewDispStoreInsts            78751855                       # Number of dispatched store instructions
system.cpu0.iew.iewDispatchedInsts          623536605                       # Number of instructions dispatched to IQ
system.cpu0.iew.iewExecLoadInsts            197372400                       # Number of load instructions executed
system.cpu0.iew.iewExecSquashedInsts          4231266                       # Number of squashed instructions skipped in execute
system.cpu0.iew.iewExecutedInsts            610794033                       # Number of executed instructions
system.cpu0.iew.iewIQFullEvents                534195                       # Number of times the IQ has become full, causing a stall
system.cpu0.iew.iewIdleCycles                       0                       # Number of cycles IEW is idle
system.cpu0.iew.iewLSQFullEvents              2150901                       # Number of times the LSQ has become full, causing a stall
system.cpu0.iew.iewSquashCycles               6371911                       # Number of cycles IEW is squashing
system.cpu0.iew.iewUnblockCycles              3301215                       # Number of cycles IEW is unblocking
system.cpu0.iew.lsq.thread0.blockedLoads            0                       # Number of blocked loads due to partial load-store forwarding
system.cpu0.iew.lsq.thread0.cacheBlocked       142442                       # Number of times an access to memory failed due to the cache being blocked
system.cpu0.iew.lsq.thread0.forwLoads         9446992                       # Number of loads that had data forwarded from stores
system.cpu0.iew.lsq.thread0.ignoredResponses        29739                       # Number of memory responses ignored because the instruction is squashed
system.cpu0.iew.lsq.thread0.invAddrLoads            0                       # Number of loads ignored due to an invalid address
system.cpu0.iew.lsq.thread0.invAddrSwpfs            0                       # Number of software prefetches ignored due to an invalid address
system.cpu0.iew.lsq.thread0.memOrderViolation         5320                       # Number of memory ordering violations
system.cpu0.iew.lsq.thread0.rescheduledLoads      3234514                       # Number of loads that were rescheduled
system.cpu0.iew.lsq.thread0.squashedLoads     24909856                       # Number of loads squashed
system.cpu0.iew.lsq.thread0.squashedStores      8430167                       # Number of stores squashed
system.cpu0.iew.memOrderViolationEvents          5320                       # Number of memory order violations
system.cpu0.iew.predictedNotTakenIncorrect       827973                       # Number of branches that were predicted not taken incorrectly
system.cpu0.iew.predictedTakenIncorrect       5652073                       # Number of branches that were predicted taken incorrectly
system.cpu0.iew.wb_consumers                272156954                       # num instructions consuming a value
system.cpu0.iew.wb_count                    603963383                       # cumulative count of insts written-back
system.cpu0.iew.wb_fanout                    0.835225                       # average fanout of values written-back
system.cpu0.iew.wb_producers                227312223                       # num instructions producing a value
system.cpu0.iew.wb_rate                      0.588953                       # insts written-back per cycle
system.cpu0.iew.wb_sent                     604057419                       # cumulative count of insts sent to commit
system.cpu0.int_regfile_reads               743234012                       # number of integer regfile reads
system.cpu0.int_regfile_writes              386013357                       # number of integer regfile writes
system.cpu0.ipc                              0.547821                       # IPC: Instructions Per Cycle
system.cpu0.ipc_total                        0.547821                       # IPC: Total IPC of All Threads
system.cpu0.iq.FU_type_0::No_OpClass          1020985      0.17%      0.17% # Type of FU issued
system.cpu0.iq.FU_type_0::IntAlu            332761648     54.11%     54.27% # Type of FU issued
system.cpu0.iq.FU_type_0::IntMult             4213040      0.69%     54.96% # Type of FU issued
system.cpu0.iq.FU_type_0::IntDiv              1018061      0.17%     55.12% # Type of FU issued
system.cpu0.iq.FU_type_0::FloatAdd                  0      0.00%     55.12% # Type of FU issued
system.cpu0.iq.FU_type_0::FloatCmp                  4      0.00%     55.12% # Type of FU issued
system.cpu0.iq.FU_type_0::FloatCvt                 12      0.00%     55.12% # Type of FU issued
system.cpu0.iq.FU_type_0::FloatMult                 0      0.00%     55.12% # Type of FU issued
system.cpu0.iq.FU_type_0::FloatMultAcc              0      0.00%     55.12% # Type of FU issued
system.cpu0.iq.FU_type_0::FloatDiv                  2      0.00%     55.12% # Type of FU issued
system.cpu0.iq.FU_type_0::FloatMisc                 4      0.00%     55.12% # Type of FU issued
system.cpu0.iq.FU_type_0::FloatSqrt                 0      0.00%     55.12% # Type of FU issued
system.cpu0.iq.FU_type_0::SimdAdd                   0      0.00%     55.12% # Type of FU issued
system.cpu0.iq.FU_type_0::SimdAddAcc                0      0.00%     55.12% # Type of FU issued
system.cpu0.iq.FU_type_0::SimdAlu                   0      0.00%     55.12% # Type of FU issued
system.cpu0.iq.FU_type_0::SimdCmp                   0      0.00%     55.12% # Type of FU issued
system.cpu0.iq.FU_type_0::SimdCvt                   0      0.00%     55.12% # Type of FU issued
system.cpu0.iq.FU_type_0::SimdMisc                  0      0.00%     55.12% # Type of FU issued
system.cpu0.iq.FU_type_0::SimdMult                  0      0.00%     55.12% # Type of FU issued
system.cpu0.iq.FU_type_0::SimdMultAcc               0      0.00%     55.12% # Type of FU issued
system.cpu0.iq.FU_type_0::SimdShift                 0      0.00%     55.12% # Type of FU issued
system.cpu0.iq.FU_type_0::SimdShiftAcc              0      0.00%     55.12% # Type of FU issued
system.cpu0.iq.FU_type_0::SimdDiv                   0      0.00%     55.12% # Type of FU issued
system.cpu0.iq.FU_type_0::SimdSqrt                  0      0.00%     55.12% # Type of FU issued
system.cpu0.iq.FU_type_0::SimdFloatAdd              0      0.00%     55.12% # Type of FU issued
system.cpu0.iq.FU_type_0::SimdFloatAlu              0      0.00%     55.12% # Type of FU issued
system.cpu0.iq.FU_type_0::SimdFloatCmp              0      0.00%     55.12% # Type of FU issued
system.cpu0.iq.FU_type_0::SimdFloatCvt              0      0.00%     55.12% # Type of FU issued
system.cpu0.iq.FU_type_0::SimdFloatDiv              0      0.00%     55.12% # Type of FU issued
system.cpu0.iq.FU_type_0::SimdFloatMisc             0      0.00%     55.12% # Type of FU issued
system.cpu0.iq.FU_type_0::SimdFloatMult             0      0.00%     55.12% # Type of FU issued
system.cpu0.iq.FU_type_0::SimdFloatMultAcc            0      0.00%     55.12% # Type of FU issued
system.cpu0.iq.FU_type_0::SimdFloatSqrt             0      0.00%     55.12% # Type of FU issued
system.cpu0.iq.FU_type_0::SimdReduceAdd             0      0.00%     55.12% # Type of FU issued
system.cpu0.iq.FU_type_0::SimdReduceAlu             0      0.00%     55.12% # Type of FU issued
system.cpu0.iq.FU_type_0::SimdReduceCmp             0      0.00%     55.12% # Type of FU issued
system.cpu0.iq.FU_type_0::SimdFloatReduceAdd            0      0.00%     55.12% # Type of FU issued
system.cpu0.iq.FU_type_0::SimdFloatReduceCmp            0      0.00%     55.12% # Type of FU issued
system.cpu0.iq.FU_type_0::SimdAes                   0      0.00%     55.12% # Type of FU issued
system.cpu0.iq.FU_type_0::SimdAesMix                0      0.00%     55.12% # Type of FU issued
system.cpu0.iq.FU_type_0::SimdSha1Hash              0      0.00%     55.12% # Type of FU issued
system.cpu0.iq.FU_type_0::SimdSha1Hash2             0      0.00%     55.12% # Type of FU issued
system.cpu0.iq.FU_type_0::SimdSha256Hash            0      0.00%     55.12% # Type of FU issued
system.cpu0.iq.FU_type_0::SimdSha256Hash2            0      0.00%     55.12% # Type of FU issued
system.cpu0.iq.FU_type_0::SimdShaSigma2             0      0.00%     55.12% # Type of FU issued
system.cpu0.iq.FU_type_0::SimdShaSigma3             0      0.00%     55.12% # Type of FU issued
system.cpu0.iq.FU_type_0::SimdPredAlu               0      0.00%     55.12% # Type of FU issued
system.cpu0.iq.FU_type_0::MemRead           199408487     32.42%     87.54% # Type of FU issued
system.cpu0.iq.FU_type_0::MemWrite           76603027     12.46%    100.00% # Type of FU issued
system.cpu0.iq.FU_type_0::FloatMemRead              9      0.00%    100.00% # Type of FU issued
system.cpu0.iq.FU_type_0::FloatMemWrite            20      0.00%    100.00% # Type of FU issued
system.cpu0.iq.FU_type_0::IprAccess                 0      0.00%    100.00% # Type of FU issued
system.cpu0.iq.FU_type_0::InstPrefetch              0      0.00%    100.00% # Type of FU issued
system.cpu0.iq.FU_type_0::total             615025299                       # Type of FU issued
system.cpu0.iq.fp_alu_accesses                     55                       # Number of floating point alu accesses
system.cpu0.iq.fp_inst_queue_reads                106                       # Number of floating instruction queue reads
system.cpu0.iq.fp_inst_queue_wakeup_accesses           51                       # Number of floating instruction queue wakeup accesses
system.cpu0.iq.fp_inst_queue_writes                52                       # Number of floating instruction queue writes
system.cpu0.iq.fu_busy_cnt                     873037                       # FU busy when requested
system.cpu0.iq.fu_busy_rate                  0.001420                       # FU busy rate (busy events/executed inst)
system.cpu0.iq.fu_full::No_OpClass                  0      0.00%      0.00% # attempts to use FU when none available
system.cpu0.iq.fu_full::IntAlu                 169401     19.40%     19.40% # attempts to use FU when none available
system.cpu0.iq.fu_full::IntMult                    10      0.00%     19.40% # attempts to use FU when none available
system.cpu0.iq.fu_full::IntDiv                      0      0.00%     19.40% # attempts to use FU when none available
system.cpu0.iq.fu_full::FloatAdd                    0      0.00%     19.40% # attempts to use FU when none available
system.cpu0.iq.fu_full::FloatCmp                    0      0.00%     19.40% # attempts to use FU when none available
system.cpu0.iq.fu_full::FloatCvt                    0      0.00%     19.40% # attempts to use FU when none available
system.cpu0.iq.fu_full::FloatMult                   0      0.00%     19.40% # attempts to use FU when none available
system.cpu0.iq.fu_full::FloatMultAcc                0      0.00%     19.40% # attempts to use FU when none available
system.cpu0.iq.fu_full::FloatDiv                    0      0.00%     19.40% # attempts to use FU when none available
system.cpu0.iq.fu_full::FloatMisc                   0      0.00%     19.40% # attempts to use FU when none available
system.cpu0.iq.fu_full::FloatSqrt                   0      0.00%     19.40% # attempts to use FU when none available
system.cpu0.iq.fu_full::SimdAdd                     0      0.00%     19.40% # attempts to use FU when none available
system.cpu0.iq.fu_full::SimdAddAcc                  0      0.00%     19.40% # attempts to use FU when none available
system.cpu0.iq.fu_full::SimdAlu                     0      0.00%     19.40% # attempts to use FU when none available
system.cpu0.iq.fu_full::SimdCmp                     0      0.00%     19.40% # attempts to use FU when none available
system.cpu0.iq.fu_full::SimdCvt                     0      0.00%     19.40% # attempts to use FU when none available
system.cpu0.iq.fu_full::SimdMisc                    0      0.00%     19.40% # attempts to use FU when none available
system.cpu0.iq.fu_full::SimdMult                    0      0.00%     19.40% # attempts to use FU when none available
system.cpu0.iq.fu_full::SimdMultAcc                 0      0.00%     19.40% # attempts to use FU when none available
system.cpu0.iq.fu_full::SimdShift                   0      0.00%     19.40% # attempts to use FU when none available
system.cpu0.iq.fu_full::SimdShiftAcc                0      0.00%     19.40% # attempts to use FU when none available
system.cpu0.iq.fu_full::SimdDiv                     0      0.00%     19.40% # attempts to use FU when none available
system.cpu0.iq.fu_full::SimdSqrt                    0      0.00%     19.40% # attempts to use FU when none available
system.cpu0.iq.fu_full::SimdFloatAdd                0      0.00%     19.40% # attempts to use FU when none available
system.cpu0.iq.fu_full::SimdFloatAlu                0      0.00%     19.40% # attempts to use FU when none available
system.cpu0.iq.fu_full::SimdFloatCmp                0      0.00%     19.40% # attempts to use FU when none available
system.cpu0.iq.fu_full::SimdFloatCvt                0      0.00%     19.40% # attempts to use FU when none available
system.cpu0.iq.fu_full::SimdFloatDiv                0      0.00%     19.40% # attempts to use FU when none available
system.cpu0.iq.fu_full::SimdFloatMisc               0      0.00%     19.40% # attempts to use FU when none available
system.cpu0.iq.fu_full::SimdFloatMult               0      0.00%     19.40% # attempts to use FU when none available
system.cpu0.iq.fu_full::SimdFloatMultAcc            0      0.00%     19.40% # attempts to use FU when none available
system.cpu0.iq.fu_full::SimdFloatSqrt               0      0.00%     19.40% # attempts to use FU when none available
system.cpu0.iq.fu_full::SimdReduceAdd               0      0.00%     19.40% # attempts to use FU when none available
system.cpu0.iq.fu_full::SimdReduceAlu               0      0.00%     19.40% # attempts to use FU when none available
system.cpu0.iq.fu_full::SimdReduceCmp               0      0.00%     19.40% # attempts to use FU when none available
system.cpu0.iq.fu_full::SimdFloatReduceAdd            0      0.00%     19.40% # attempts to use FU when none available
system.cpu0.iq.fu_full::SimdFloatReduceCmp            0      0.00%     19.40% # attempts to use FU when none available
system.cpu0.iq.fu_full::SimdAes                     0      0.00%     19.40% # attempts to use FU when none available
system.cpu0.iq.fu_full::SimdAesMix                  0      0.00%     19.40% # attempts to use FU when none available
system.cpu0.iq.fu_full::SimdSha1Hash                0      0.00%     19.40% # attempts to use FU when none available
system.cpu0.iq.fu_full::SimdSha1Hash2               0      0.00%     19.40% # attempts to use FU when none available
system.cpu0.iq.fu_full::SimdSha256Hash              0      0.00%     19.40% # attempts to use FU when none available
system.cpu0.iq.fu_full::SimdSha256Hash2             0      0.00%     19.40% # attempts to use FU when none available
system.cpu0.iq.fu_full::SimdShaSigma2               0      0.00%     19.40% # attempts to use FU when none available
system.cpu0.iq.fu_full::SimdShaSigma3               0      0.00%     19.40% # attempts to use FU when none available
system.cpu0.iq.fu_full::SimdPredAlu                 0      0.00%     19.40% # attempts to use FU when none available
system.cpu0.iq.fu_full::MemRead                601977     68.95%     88.36% # attempts to use FU when none available
system.cpu0.iq.fu_full::MemWrite               101645     11.64%    100.00% # attempts to use FU when none available
system.cpu0.iq.fu_full::FloatMemRead                0      0.00%    100.00% # attempts to use FU when none available
system.cpu0.iq.fu_full::FloatMemWrite               4      0.00%    100.00% # attempts to use FU when none available
system.cpu0.iq.fu_full::IprAccess                   0      0.00%    100.00% # attempts to use FU when none available
system.cpu0.iq.fu_full::InstPrefetch                0      0.00%    100.00% # attempts to use FU when none available
system.cpu0.iq.int_alu_accesses             614877296                       # Number of integer alu accesses
system.cpu0.iq.int_inst_queue_reads        2145786948                       # Number of integer instruction queue reads
system.cpu0.iq.int_inst_queue_wakeup_accesses    603963332                       # Number of integer instruction queue wakeup accesses
system.cpu0.iq.int_inst_queue_writes        684783622                       # Number of integer instruction queue writes
system.cpu0.iq.iqInstsAdded                 620489909                       # Number of instructions added to the IQ (excludes non-spec)
system.cpu0.iq.iqInstsIssued                615025299                       # Number of instructions issued
system.cpu0.iq.iqNonSpecInstsAdded            3046696                       # Number of non-speculative instructions added to the IQ
system.cpu0.iq.iqSquashedInstsExamined       61242466                       # Number of squashed instructions iterated over during squash; mainly for profiling
system.cpu0.iq.iqSquashedInstsIssued            79774                       # Number of squashed instructions issued
system.cpu0.iq.iqSquashedNonSpecRemoved       1514325                       # Number of squashed non-spec instructions that were removed
system.cpu0.iq.iqSquashedOperandsExamined     20265920                       # Number of squashed operands that are examined and possibly removed from graph
system.cpu0.iq.issued_per_cycle::samples    914783645                       # Number of insts issued each cycle
system.cpu0.iq.issued_per_cycle::mean        0.672318                       # Number of insts issued each cycle
system.cpu0.iq.issued_per_cycle::stdev       0.866508                       # Number of insts issued each cycle
system.cpu0.iq.issued_per_cycle::underflows            0      0.00%      0.00% # Number of insts issued each cycle
system.cpu0.iq.issued_per_cycle::0          486248719     53.15%     53.15% # Number of insts issued each cycle
system.cpu0.iq.issued_per_cycle::1          287582153     31.44%     84.59% # Number of insts issued each cycle
system.cpu0.iq.issued_per_cycle::2          103502447     11.31%     95.91% # Number of insts issued each cycle
system.cpu0.iq.issued_per_cycle::3           30901356      3.38%     99.28% # Number of insts issued each cycle
system.cpu0.iq.issued_per_cycle::4            5714072      0.62%     99.91% # Number of insts issued each cycle
system.cpu0.iq.issued_per_cycle::5             360480      0.04%     99.95% # Number of insts issued each cycle
system.cpu0.iq.issued_per_cycle::6             318964      0.03%     99.98% # Number of insts issued each cycle
system.cpu0.iq.issued_per_cycle::7              81920      0.01%     99.99% # Number of insts issued each cycle
system.cpu0.iq.issued_per_cycle::8              73534      0.01%    100.00% # Number of insts issued each cycle
system.cpu0.iq.issued_per_cycle::overflows            0      0.00%    100.00% # Number of insts issued each cycle
system.cpu0.iq.issued_per_cycle::min_value            0                       # Number of insts issued each cycle
system.cpu0.iq.issued_per_cycle::max_value            8                       # Number of insts issued each cycle
system.cpu0.iq.issued_per_cycle::total      914783645                       # Number of insts issued each cycle
system.cpu0.iq.rate                          0.599740                       # Inst issue rate
system.cpu0.iq.vec_alu_accesses                     0                       # Number of vector alu accesses
system.cpu0.iq.vec_inst_queue_reads                 0                       # Number of vector instruction queue reads
system.cpu0.iq.vec_inst_queue_wakeup_accesses            0                       # Number of vector instruction queue wakeup accesses
system.cpu0.iq.vec_inst_queue_writes                0                       # Number of vector instruction queue writes
system.cpu0.itb.accesses                            0                       # DTB accesses
system.cpu0.itb.hits                                0                       # DTB hits
system.cpu0.itb.misses                              0                       # DTB misses
system.cpu0.itb.read_accesses                       0                       # DTB read accesses
system.cpu0.itb.read_hits                           0                       # DTB read hits
system.cpu0.itb.read_misses                         0                       # DTB read misses
system.cpu0.itb.write_accesses                      0                       # DTB write accesses
system.cpu0.itb.write_hits                          0                       # DTB write hits
system.cpu0.itb.write_misses                        0                       # DTB write misses
system.cpu0.memDep0.conflictingLoads         10033596                       # Number of conflicting loads.
system.cpu0.memDep0.conflictingStores         1904632                       # Number of conflicting stores.
system.cpu0.memDep0.insertedLoads           199665941                       # Number of loads inserted to the mem dependence unit.
system.cpu0.memDep0.insertedStores           78751855                       # Number of stores inserted to the mem dependence unit.
system.cpu0.misc_regfile_reads                   1037                       # number of misc regfile reads
system.cpu0.misc_regfile_writes                    22                       # number of misc regfile writes
system.cpu0.numCycles                      1025486395                       # number of cpu cycles simulated
system.cpu0.numWorkItemsCompleted                   0                       # number of work items this cpu completed
system.cpu0.numWorkItemsStarted                     0                       # number of work items this cpu started
system.cpu0.quiesceCycles                    13751428                       # Total number of cycles that CPU has spent quiesced or waiting for an interrupt
system.cpu0.rename.BlockCycles               85250391                       # Number of cycles rename is blocking
system.cpu0.rename.CommittedMaps            357814913                       # Number of HB maps that are committed
system.cpu0.rename.IQFullEvents               3658781                       # Number of times rename has blocked due to IQ full
system.cpu0.rename.IdleCycles               369577211                       # Number of cycles rename is idle
system.cpu0.rename.LQFullEvents               4469678                       # Number of times rename has blocked due to LQ full
system.cpu0.rename.ROBFullEvents                 4733                       # Number of times rename has blocked due to ROB full
system.cpu0.rename.RenameLookups            772686963                       # Number of register rename lookups that rename has made
system.cpu0.rename.RenamedInsts             634240132                       # Number of instructions processed by rename
system.cpu0.rename.RenamedOperands          407468914                       # Number of destination operands rename has renamed
system.cpu0.rename.RunCycles                435650376                       # Number of cycles rename is running
system.cpu0.rename.SQFullEvents               9853244                       # Number of times rename has blocked due to SQ full
system.cpu0.rename.SquashCycles               6371911                       # Number of cycles rename is squashing
system.cpu0.rename.UnblockCycles             17831972                       # Number of cycles rename is unblocking
system.cpu0.rename.UndoneMaps                49653997                       # Number of HB maps that are undone due to squashing
system.cpu0.rename.fp_rename_lookups               44                       # Number of floating rename lookups
system.cpu0.rename.int_rename_lookups       772686919                       # Number of integer rename lookups
system.cpu0.rename.serializeStallCycles        101784                       # count of cycles rename stalled for serializing inst
system.cpu0.rename.serializingInsts              3157                       # count of serializing insts renamed
system.cpu0.rename.skidInsts                  8004647                       # count of insts added to the skid buffer
system.cpu0.rename.tempSerializingInsts          3140                       # count of temporary serializing insts renamed
system.cpu0.rob.rob_reads                  1508790543                       # The number of ROB reads
system.cpu0.rob.rob_writes                 1259329650                       # The number of ROB writes
system.cpu0.timesIdled                       11649290                       # Number of times that the entire CPU went into an idle state and unscheduled itself
system.cpu0.workload.numSyscalls                 1004                       # Number of system calls
system.cpu1.branchPred.BTBCorrect                   0                       # Number of correct BTB predictions (this stat may not work properly.
system.cpu1.branchPred.BTBHitPct            90.030272                       # BTB Hit Percentage
system.cpu1.branchPred.BTBHits                4298426                       # Number of BTB hits
system.cpu1.branchPred.BTBLookups             4774423                       # Number of BTB lookups
system.cpu1.branchPred.RASInCorrect                 0                       # Number of incorrect RAS predictions.
system.cpu1.branchPred.condIncorrect           887362                       # Number of conditional branches incorrect
system.cpu1.branchPred.condPredicted          6860552                       # Number of conditional branches predicted
system.cpu1.branchPred.indirectHits            136449                       # Number of indirect target hits.
system.cpu1.branchPred.indirectLookups         140056                       # Number of indirect predictor lookups.
system.cpu1.branchPred.indirectMisses            3607                       # Number of indirect misses.
system.cpu1.branchPred.lookups                7854965                       # Number of BP lookups
system.cpu1.branchPred.usedRAS                      0                       # Number of times the RAS was used to get a target.
system.cpu1.branchPredindirectMispredicted         8841                       # Number of mispredicted indirect branches.
system.cpu1.commit.amos                        509182                       # Number of atomic instructions committed
system.cpu1.commit.branchMispredicts           537079                       # The number of times a branch was mispredicted
system.cpu1.commit.branches                   4419434                       # Number of branches committed
system.cpu1.commit.bw_lim_events               489458                       # number cycles where commit BW limit reached
system.cpu1.commit.commitNonSpecStalls        1528231                       # The number of times commit has been forced to stall to communicate backwards
system.cpu1.commit.commitSquashedInsts       10678944                       # The number of squashed insts skipped by commit
system.cpu1.commit.committedInsts            19243801                       # Number of instructions committed
system.cpu1.commit.committedOps              19753181                       # Number of ops (including micro ops) committed
system.cpu1.commit.committed_per_cycle::samples    110422674                       # Number of insts commited each cycle
system.cpu1.commit.committed_per_cycle::mean     0.178887                       # Number of insts commited each cycle
system.cpu1.commit.committed_per_cycle::stdev     0.837104                       # Number of insts commited each cycle
system.cpu1.commit.committed_per_cycle::underflows            0      0.00%      0.00% # Number of insts commited each cycle
system.cpu1.commit.committed_per_cycle::0    102220725     92.57%     92.57% # Number of insts commited each cycle
system.cpu1.commit.committed_per_cycle::1      4097079      3.71%     96.28% # Number of insts commited each cycle
system.cpu1.commit.committed_per_cycle::2      1372824      1.24%     97.53% # Number of insts commited each cycle
system.cpu1.commit.committed_per_cycle::3      1257351      1.14%     98.66% # Number of insts commited each cycle
system.cpu1.commit.committed_per_cycle::4       322903      0.29%     98.96% # Number of insts commited each cycle
system.cpu1.commit.committed_per_cycle::5       114340      0.10%     99.06% # Number of insts commited each cycle
system.cpu1.commit.committed_per_cycle::6       476533      0.43%     99.49% # Number of insts commited each cycle
system.cpu1.commit.committed_per_cycle::7        71461      0.06%     99.56% # Number of insts commited each cycle
system.cpu1.commit.committed_per_cycle::8       489458      0.44%    100.00% # Number of insts commited each cycle
system.cpu1.commit.committed_per_cycle::overflows            0      0.00%    100.00% # Number of insts commited each cycle
system.cpu1.commit.committed_per_cycle::min_value            0                       # Number of insts commited each cycle
system.cpu1.commit.committed_per_cycle::max_value            8                       # Number of insts commited each cycle
system.cpu1.commit.committed_per_cycle::total    110422674                       # Number of insts commited each cycle
system.cpu1.commit.fp_insts                        12                       # Number of committed floating point instructions.
system.cpu1.commit.function_calls              227451                       # Number of function calls committed.
system.cpu1.commit.int_insts                 18552667                       # Number of committed integer instructions.
system.cpu1.commit.loads                      5320153                       # Number of loads committed
system.cpu1.commit.membars                    1018431                       # Number of memory barriers committed
system.cpu1.commit.op_class_0::No_OpClass      1018431      5.16%      5.16% # Class of committed instruction
system.cpu1.commit.op_class_0::IntAlu        11645767     58.96%     64.11% # Class of committed instruction
system.cpu1.commit.op_class_0::IntMult             42      0.00%     64.11% # Class of committed instruction
system.cpu1.commit.op_class_0::IntDiv              84      0.00%     64.11% # Class of committed instruction
system.cpu1.commit.op_class_0::FloatAdd             0      0.00%     64.11% # Class of committed instruction
system.cpu1.commit.op_class_0::FloatCmp             0      0.00%     64.11% # Class of committed instruction
system.cpu1.commit.op_class_0::FloatCvt             0      0.00%     64.11% # Class of committed instruction
system.cpu1.commit.op_class_0::FloatMult            0      0.00%     64.11% # Class of committed instruction
system.cpu1.commit.op_class_0::FloatMultAcc            0      0.00%     64.11% # Class of committed instruction
system.cpu1.commit.op_class_0::FloatDiv             0      0.00%     64.11% # Class of committed instruction
system.cpu1.commit.op_class_0::FloatMisc            0      0.00%     64.11% # Class of committed instruction
system.cpu1.commit.op_class_0::FloatSqrt            0      0.00%     64.11% # Class of committed instruction
system.cpu1.commit.op_class_0::SimdAdd              0      0.00%     64.11% # Class of committed instruction
system.cpu1.commit.op_class_0::SimdAddAcc            0      0.00%     64.11% # Class of committed instruction
system.cpu1.commit.op_class_0::SimdAlu              0      0.00%     64.11% # Class of committed instruction
system.cpu1.commit.op_class_0::SimdCmp              0      0.00%     64.11% # Class of committed instruction
system.cpu1.commit.op_class_0::SimdCvt              0      0.00%     64.11% # Class of committed instruction
system.cpu1.commit.op_class_0::SimdMisc             0      0.00%     64.11% # Class of committed instruction
system.cpu1.commit.op_class_0::SimdMult             0      0.00%     64.11% # Class of committed instruction
system.cpu1.commit.op_class_0::SimdMultAcc            0      0.00%     64.11% # Class of committed instruction
system.cpu1.commit.op_class_0::SimdShift            0      0.00%     64.11% # Class of committed instruction
system.cpu1.commit.op_class_0::SimdShiftAcc            0      0.00%     64.11% # Class of committed instruction
system.cpu1.commit.op_class_0::SimdDiv              0      0.00%     64.11% # Class of committed instruction
system.cpu1.commit.op_class_0::SimdSqrt             0      0.00%     64.11% # Class of committed instruction
system.cpu1.commit.op_class_0::SimdFloatAdd            0      0.00%     64.11% # Class of committed instruction
system.cpu1.commit.op_class_0::SimdFloatAlu            0      0.00%     64.11% # Class of committed instruction
system.cpu1.commit.op_class_0::SimdFloatCmp            0      0.00%     64.11% # Class of committed instruction
system.cpu1.commit.op_class_0::SimdFloatCvt            0      0.00%     64.11% # Class of committed instruction
system.cpu1.commit.op_class_0::SimdFloatDiv            0      0.00%     64.11% # Class of committed instruction
system.cpu1.commit.op_class_0::SimdFloatMisc            0      0.00%     64.11% # Class of committed instruction
system.cpu1.commit.op_class_0::SimdFloatMult            0      0.00%     64.11% # Class of committed instruction
system.cpu1.commit.op_class_0::SimdFloatMultAcc            0      0.00%     64.11% # Class of committed instruction
system.cpu1.commit.op_class_0::SimdFloatSqrt            0      0.00%     64.11% # Class of committed instruction
system.cpu1.commit.op_class_0::SimdReduceAdd            0      0.00%     64.11% # Class of committed instruction
system.cpu1.commit.op_class_0::SimdReduceAlu            0      0.00%     64.11% # Class of committed instruction
system.cpu1.commit.op_class_0::SimdReduceCmp            0      0.00%     64.11% # Class of committed instruction
system.cpu1.commit.op_class_0::SimdFloatReduceAdd            0      0.00%     64.11% # Class of committed instruction
system.cpu1.commit.op_class_0::SimdFloatReduceCmp            0      0.00%     64.11% # Class of committed instruction
system.cpu1.commit.op_class_0::SimdAes              0      0.00%     64.11% # Class of committed instruction
system.cpu1.commit.op_class_0::SimdAesMix            0      0.00%     64.11% # Class of committed instruction
system.cpu1.commit.op_class_0::SimdSha1Hash            0      0.00%     64.11% # Class of committed instruction
system.cpu1.commit.op_class_0::SimdSha1Hash2            0      0.00%     64.11% # Class of committed instruction
system.cpu1.commit.op_class_0::SimdSha256Hash            0      0.00%     64.11% # Class of committed instruction
system.cpu1.commit.op_class_0::SimdSha256Hash2            0      0.00%     64.11% # Class of committed instruction
system.cpu1.commit.op_class_0::SimdShaSigma2            0      0.00%     64.11% # Class of committed instruction
system.cpu1.commit.op_class_0::SimdShaSigma3            0      0.00%     64.11% # Class of committed instruction
system.cpu1.commit.op_class_0::SimdPredAlu            0      0.00%     64.11% # Class of committed instruction
system.cpu1.commit.op_class_0::MemRead        5829335     29.51%     93.62% # Class of committed instruction
system.cpu1.commit.op_class_0::MemWrite       1259510      6.38%    100.00% # Class of committed instruction
system.cpu1.commit.op_class_0::FloatMemRead            0      0.00%    100.00% # Class of committed instruction
system.cpu1.commit.op_class_0::FloatMemWrite           12      0.00%    100.00% # Class of committed instruction
system.cpu1.commit.op_class_0::IprAccess            0      0.00%    100.00% # Class of committed instruction
system.cpu1.commit.op_class_0::InstPrefetch            0      0.00%    100.00% # Class of committed instruction
system.cpu1.commit.op_class_0::total         19753181                       # Class of committed instruction
system.cpu1.commit.refs                       7088857                       # Number of memory references committed
system.cpu1.commit.swp_count                        0                       # Number of s/w prefetches committed
system.cpu1.commit.vec_insts                        0                       # Number of committed Vector instructions.
system.cpu1.committedInsts                   19243801                       # Number of Instructions Simulated
system.cpu1.committedOps                     19753181                       # Number of Ops (including micro ops) Simulated
system.cpu1.cpi                              5.844571                       # CPI: Cycles Per Instruction
system.cpu1.cpi_total                        5.844571                       # CPI: Total CPI of All Threads
system.cpu1.decode.BlockedCycles             90966102                       # Number of cycles decode is blocked
system.cpu1.decode.BranchMispred               355188                       # Number of times decode detected a branch misprediction
system.cpu1.decode.BranchResolved             3689259                       # Number of times decode resolved a branch
system.cpu1.decode.DecodedInsts              32638905                       # Number of instructions handled by decode
system.cpu1.decode.IdleCycles                 5925587                       # Number of cycles decode is idle
system.cpu1.decode.RunCycles                 13569063                       # Number of cycles decode is running
system.cpu1.decode.SquashCycles                537537                       # Number of cycles decode is squashing
system.cpu1.decode.SquashedInsts               410538                       # Number of squashed instructions handled by decode
system.cpu1.decode.UnblockCycles              1171153                       # Number of cycles decode is unblocking
system.cpu1.dtb.accesses                            0                       # DTB accesses
system.cpu1.dtb.hits                                0                       # DTB hits
system.cpu1.dtb.misses                              0                       # DTB misses
system.cpu1.dtb.read_accesses                       0                       # DTB read accesses
system.cpu1.dtb.read_hits                           0                       # DTB read hits
system.cpu1.dtb.read_misses                         0                       # DTB read misses
system.cpu1.dtb.write_accesses                      0                       # DTB write accesses
system.cpu1.dtb.write_hits                          0                       # DTB write hits
system.cpu1.dtb.write_misses                        0                       # DTB write misses
system.cpu1.fetch.Branches                    7854965                       # Number of branches that fetch encountered
system.cpu1.fetch.CacheLines                  5775182                       # Number of cache lines fetched
system.cpu1.fetch.Cycles                    104820765                       # Number of cycles fetch has run and was not squashing or blocked
system.cpu1.fetch.IcacheSquashes                92855                       # Number of outstanding Icache misses that were squashed
system.cpu1.fetch.Insts                      36828404                       # Number of instructions fetch has processed
system.cpu1.fetch.MiscStallCycles                   1                       # Number of cycles fetch has spent waiting on interrupts, or bad addresses, or out of MSHRs
system.cpu1.fetch.SquashCycles                1775640                       # Number of cycles fetch has spent squashing
system.cpu1.fetch.branchRate                 0.069839                       # Number of branch fetches per cycle
system.cpu1.fetch.icacheStallCycles           6460856                       # Number of cycles fetch is stalled on an Icache miss
system.cpu1.fetch.predictedBranches           4434875                       # Number of branches that fetch has predicted taken
system.cpu1.fetch.rate                       0.327446                       # Number of inst fetches per cycle
system.cpu1.fetch.rateDist::samples         112169442                       # Number of instructions fetched each cycle (Total)
system.cpu1.fetch.rateDist::mean             0.340619                       # Number of instructions fetched each cycle (Total)
system.cpu1.fetch.rateDist::stdev            0.837454                       # Number of instructions fetched each cycle (Total)
system.cpu1.fetch.rateDist::underflows              0      0.00%      0.00% # Number of instructions fetched each cycle (Total)
system.cpu1.fetch.rateDist::0                89456704     79.75%     79.75% # Number of instructions fetched each cycle (Total)
system.cpu1.fetch.rateDist::1                13766560     12.27%     92.02% # Number of instructions fetched each cycle (Total)
system.cpu1.fetch.rateDist::2                 5279450      4.71%     96.73% # Number of instructions fetched each cycle (Total)
system.cpu1.fetch.rateDist::3                 2152612      1.92%     98.65% # Number of instructions fetched each cycle (Total)
system.cpu1.fetch.rateDist::4                  592050      0.53%     99.18% # Number of instructions fetched each cycle (Total)
system.cpu1.fetch.rateDist::5                  477649      0.43%     99.60% # Number of instructions fetched each cycle (Total)
system.cpu1.fetch.rateDist::6                  444027      0.40%    100.00% # Number of instructions fetched each cycle (Total)
system.cpu1.fetch.rateDist::7                      10      0.00%    100.00% # Number of instructions fetched each cycle (Total)
system.cpu1.fetch.rateDist::8                     380      0.00%    100.00% # Number of instructions fetched each cycle (Total)
system.cpu1.fetch.rateDist::overflows               0      0.00%    100.00% # Number of instructions fetched each cycle (Total)
system.cpu1.fetch.rateDist::min_value               0                       # Number of instructions fetched each cycle (Total)
system.cpu1.fetch.rateDist::max_value               8                       # Number of instructions fetched each cycle (Total)
system.cpu1.fetch.rateDist::total           112169442                       # Number of instructions fetched each cycle (Total)
system.cpu1.fp_regfile_reads                       12                       # number of floating regfile reads
system.cpu1.idleCycles                         302318                       # Total number of cycles that the CPU has spent unscheduled due to idling
system.cpu1.iew.branchMispredicts              556364                       # Number of branch mispredicts detected at execute
system.cpu1.iew.exec_branches                 5527124                       # Number of branches executed
system.cpu1.iew.exec_nop                            0                       # number of nop insts executed
system.cpu1.iew.exec_rate                    0.202873                       # Inst execution rate
system.cpu1.iew.exec_refs                     7749877                       # number of memory reference insts executed
system.cpu1.iew.exec_stores                   1850193                       # Number of stores executed
system.cpu1.iew.exec_swp                            0                       # number of swp insts executed
system.cpu1.iew.iewBlockCycles               77153704                       # Number of cycles IEW is blocking
system.cpu1.iew.iewDispLoadInsts              8450839                       # Number of dispatched load instructions
system.cpu1.iew.iewDispNonSpecInsts           1011242                       # Number of dispatched non-speculative instructions
system.cpu1.iew.iewDispSquashedInsts           306982                       # Number of squashed instructions skipped by dispatch
system.cpu1.iew.iewDispStoreInsts             2928326                       # Number of dispatched store instructions
system.cpu1.iew.iewDispatchedInsts           30427009                       # Number of instructions dispatched to IQ
system.cpu1.iew.iewExecLoadInsts              5899684                       # Number of load instructions executed
system.cpu1.iew.iewExecSquashedInsts           272996                       # Number of squashed instructions skipped in execute
system.cpu1.iew.iewExecutedInsts             22817439                       # Number of executed instructions
system.cpu1.iew.iewIQFullEvents                453935                       # Number of times the IQ has become full, causing a stall
system.cpu1.iew.iewIdleCycles                       0                       # Number of cycles IEW is idle
system.cpu1.iew.iewLSQFullEvents               791660                       # Number of times the LSQ has become full, causing a stall
system.cpu1.iew.iewSquashCycles                537537                       # Number of cycles IEW is squashing
system.cpu1.iew.iewUnblockCycles              1867439                       # Number of cycles IEW is unblocking
system.cpu1.iew.lsq.thread0.blockedLoads            0                       # Number of blocked loads due to partial load-store forwarding
system.cpu1.iew.lsq.thread0.cacheBlocked        20182                       # Number of times an access to memory failed due to the cache being blocked
system.cpu1.iew.lsq.thread0.forwLoads          146161                       # Number of loads that had data forwarded from stores
system.cpu1.iew.lsq.thread0.ignoredResponses         6717                       # Number of memory responses ignored because the instruction is squashed
system.cpu1.iew.lsq.thread0.invAddrLoads            0                       # Number of loads ignored due to an invalid address
system.cpu1.iew.lsq.thread0.invAddrSwpfs            0                       # Number of software prefetches ignored due to an invalid address
system.cpu1.iew.lsq.thread0.memOrderViolation          472                       # Number of memory ordering violations
system.cpu1.iew.lsq.thread0.rescheduledLoads         1287                       # Number of loads that were rescheduled
system.cpu1.iew.lsq.thread0.squashedLoads      3130686                       # Number of loads squashed
system.cpu1.iew.lsq.thread0.squashedStores      1159622                       # Number of stores squashed
system.cpu1.iew.memOrderViolationEvents           472                       # Number of memory order violations
system.cpu1.iew.predictedNotTakenIncorrect        92638                       # Number of branches that were predicted not taken incorrectly
system.cpu1.iew.predictedTakenIncorrect        463726                       # Number of branches that were predicted taken incorrectly
system.cpu1.iew.wb_consumers                 13139608                       # num instructions consuming a value
system.cpu1.iew.wb_count                     22536958                       # cumulative count of insts written-back
system.cpu1.iew.wb_fanout                    0.814231                       # average fanout of values written-back
system.cpu1.iew.wb_producers                 10698682                       # num instructions producing a value
system.cpu1.iew.wb_rate                      0.200379                       # insts written-back per cycle
system.cpu1.iew.wb_sent                      22546041                       # cumulative count of insts sent to commit
system.cpu1.int_regfile_reads                28702985                       # number of integer regfile reads
system.cpu1.int_regfile_writes               14787077                       # number of integer regfile writes
system.cpu1.ipc                              0.171099                       # IPC: Instructions Per Cycle
system.cpu1.ipc_total                        0.171099                       # IPC: Total IPC of All Threads
system.cpu1.iq.FU_type_0::No_OpClass          1018642      4.41%      4.41% # Type of FU issued
system.cpu1.iq.FU_type_0::IntAlu             14234721     61.65%     66.06% # Type of FU issued
system.cpu1.iq.FU_type_0::IntMult                  46      0.00%     66.06% # Type of FU issued
system.cpu1.iq.FU_type_0::IntDiv                   86      0.00%     66.06% # Type of FU issued
system.cpu1.iq.FU_type_0::FloatAdd                  0      0.00%     66.06% # Type of FU issued
system.cpu1.iq.FU_type_0::FloatCmp                  0      0.00%     66.06% # Type of FU issued
system.cpu1.iq.FU_type_0::FloatCvt                  0      0.00%     66.06% # Type of FU issued
system.cpu1.iq.FU_type_0::FloatMult                 0      0.00%     66.06% # Type of FU issued
system.cpu1.iq.FU_type_0::FloatMultAcc              0      0.00%     66.06% # Type of FU issued
system.cpu1.iq.FU_type_0::FloatDiv                  0      0.00%     66.06% # Type of FU issued
system.cpu1.iq.FU_type_0::FloatMisc                 0      0.00%     66.06% # Type of FU issued
system.cpu1.iq.FU_type_0::FloatSqrt                 0      0.00%     66.06% # Type of FU issued
system.cpu1.iq.FU_type_0::SimdAdd                   0      0.00%     66.06% # Type of FU issued
system.cpu1.iq.FU_type_0::SimdAddAcc                0      0.00%     66.06% # Type of FU issued
system.cpu1.iq.FU_type_0::SimdAlu                   0      0.00%     66.06% # Type of FU issued
system.cpu1.iq.FU_type_0::SimdCmp                   0      0.00%     66.06% # Type of FU issued
system.cpu1.iq.FU_type_0::SimdCvt                   0      0.00%     66.06% # Type of FU issued
system.cpu1.iq.FU_type_0::SimdMisc                  0      0.00%     66.06% # Type of FU issued
system.cpu1.iq.FU_type_0::SimdMult                  0      0.00%     66.06% # Type of FU issued
system.cpu1.iq.FU_type_0::SimdMultAcc               0      0.00%     66.06% # Type of FU issued
system.cpu1.iq.FU_type_0::SimdShift                 0      0.00%     66.06% # Type of FU issued
system.cpu1.iq.FU_type_0::SimdShiftAcc              0      0.00%     66.06% # Type of FU issued
system.cpu1.iq.FU_type_0::SimdDiv                   0      0.00%     66.06% # Type of FU issued
system.cpu1.iq.FU_type_0::SimdSqrt                  0      0.00%     66.06% # Type of FU issued
system.cpu1.iq.FU_type_0::SimdFloatAdd              0      0.00%     66.06% # Type of FU issued
system.cpu1.iq.FU_type_0::SimdFloatAlu              0      0.00%     66.06% # Type of FU issued
system.cpu1.iq.FU_type_0::SimdFloatCmp              0      0.00%     66.06% # Type of FU issued
system.cpu1.iq.FU_type_0::SimdFloatCvt              0      0.00%     66.06% # Type of FU issued
system.cpu1.iq.FU_type_0::SimdFloatDiv              0      0.00%     66.06% # Type of FU issued
system.cpu1.iq.FU_type_0::SimdFloatMisc             0      0.00%     66.06% # Type of FU issued
system.cpu1.iq.FU_type_0::SimdFloatMult             0      0.00%     66.06% # Type of FU issued
system.cpu1.iq.FU_type_0::SimdFloatMultAcc            0      0.00%     66.06% # Type of FU issued
system.cpu1.iq.FU_type_0::SimdFloatSqrt             0      0.00%     66.06% # Type of FU issued
system.cpu1.iq.FU_type_0::SimdReduceAdd             0      0.00%     66.06% # Type of FU issued
system.cpu1.iq.FU_type_0::SimdReduceAlu             0      0.00%     66.06% # Type of FU issued
system.cpu1.iq.FU_type_0::SimdReduceCmp             0      0.00%     66.06% # Type of FU issued
system.cpu1.iq.FU_type_0::SimdFloatReduceAdd            0      0.00%     66.06% # Type of FU issued
system.cpu1.iq.FU_type_0::SimdFloatReduceCmp            0      0.00%     66.06% # Type of FU issued
system.cpu1.iq.FU_type_0::SimdAes                   0      0.00%     66.06% # Type of FU issued
system.cpu1.iq.FU_type_0::SimdAesMix                0      0.00%     66.06% # Type of FU issued
system.cpu1.iq.FU_type_0::SimdSha1Hash              0      0.00%     66.06% # Type of FU issued
system.cpu1.iq.FU_type_0::SimdSha1Hash2             0      0.00%     66.06% # Type of FU issued
system.cpu1.iq.FU_type_0::SimdSha256Hash            0      0.00%     66.06% # Type of FU issued
system.cpu1.iq.FU_type_0::SimdSha256Hash2            0      0.00%     66.06% # Type of FU issued
system.cpu1.iq.FU_type_0::SimdShaSigma2             0      0.00%     66.06% # Type of FU issued
system.cpu1.iq.FU_type_0::SimdShaSigma3             0      0.00%     66.06% # Type of FU issued
system.cpu1.iq.FU_type_0::SimdPredAlu               0      0.00%     66.06% # Type of FU issued
system.cpu1.iq.FU_type_0::MemRead             6479649     28.06%     94.12% # Type of FU issued
system.cpu1.iq.FU_type_0::MemWrite            1357279      5.88%    100.00% # Type of FU issued
system.cpu1.iq.FU_type_0::FloatMemRead              0      0.00%    100.00% # Type of FU issued
system.cpu1.iq.FU_type_0::FloatMemWrite            12      0.00%    100.00% # Type of FU issued
system.cpu1.iq.FU_type_0::IprAccess                 0      0.00%    100.00% # Type of FU issued
system.cpu1.iq.FU_type_0::InstPrefetch              0      0.00%    100.00% # Type of FU issued
system.cpu1.iq.FU_type_0::total              23090435                       # Type of FU issued
system.cpu1.iq.fp_alu_accesses                     16                       # Number of floating point alu accesses
system.cpu1.iq.fp_inst_queue_reads                 28                       # Number of floating instruction queue reads
system.cpu1.iq.fp_inst_queue_wakeup_accesses           12                       # Number of floating instruction queue wakeup accesses
system.cpu1.iq.fp_inst_queue_writes                12                       # Number of floating instruction queue writes
system.cpu1.iq.fu_busy_cnt                     607083                       # FU busy when requested
system.cpu1.iq.fu_busy_rate                  0.026292                       # FU busy rate (busy events/executed inst)
system.cpu1.iq.fu_full::No_OpClass                  0      0.00%      0.00% # attempts to use FU when none available
system.cpu1.iq.fu_full::IntAlu                 122307     20.15%     20.15% # attempts to use FU when none available
system.cpu1.iq.fu_full::IntMult                     0      0.00%     20.15% # attempts to use FU when none available
system.cpu1.iq.fu_full::IntDiv                      0      0.00%     20.15% # attempts to use FU when none available
system.cpu1.iq.fu_full::FloatAdd                    0      0.00%     20.15% # attempts to use FU when none available
system.cpu1.iq.fu_full::FloatCmp                    0      0.00%     20.15% # attempts to use FU when none available
system.cpu1.iq.fu_full::FloatCvt                    0      0.00%     20.15% # attempts to use FU when none available
system.cpu1.iq.fu_full::FloatMult                   0      0.00%     20.15% # attempts to use FU when none available
system.cpu1.iq.fu_full::FloatMultAcc                0      0.00%     20.15% # attempts to use FU when none available
system.cpu1.iq.fu_full::FloatDiv                    0      0.00%     20.15% # attempts to use FU when none available
system.cpu1.iq.fu_full::FloatMisc                   0      0.00%     20.15% # attempts to use FU when none available
system.cpu1.iq.fu_full::FloatSqrt                   0      0.00%     20.15% # attempts to use FU when none available
system.cpu1.iq.fu_full::SimdAdd                     0      0.00%     20.15% # attempts to use FU when none available
system.cpu1.iq.fu_full::SimdAddAcc                  0      0.00%     20.15% # attempts to use FU when none available
system.cpu1.iq.fu_full::SimdAlu                     0      0.00%     20.15% # attempts to use FU when none available
system.cpu1.iq.fu_full::SimdCmp                     0      0.00%     20.15% # attempts to use FU when none available
system.cpu1.iq.fu_full::SimdCvt                     0      0.00%     20.15% # attempts to use FU when none available
system.cpu1.iq.fu_full::SimdMisc                    0      0.00%     20.15% # attempts to use FU when none available
system.cpu1.iq.fu_full::SimdMult                    0      0.00%     20.15% # attempts to use FU when none available
system.cpu1.iq.fu_full::SimdMultAcc                 0      0.00%     20.15% # attempts to use FU when none available
system.cpu1.iq.fu_full::SimdShift                   0      0.00%     20.15% # attempts to use FU when none available
system.cpu1.iq.fu_full::SimdShiftAcc                0      0.00%     20.15% # attempts to use FU when none available
system.cpu1.iq.fu_full::SimdDiv                     0      0.00%     20.15% # attempts to use FU when none available
system.cpu1.iq.fu_full::SimdSqrt                    0      0.00%     20.15% # attempts to use FU when none available
system.cpu1.iq.fu_full::SimdFloatAdd                0      0.00%     20.15% # attempts to use FU when none available
system.cpu1.iq.fu_full::SimdFloatAlu                0      0.00%     20.15% # attempts to use FU when none available
system.cpu1.iq.fu_full::SimdFloatCmp                0      0.00%     20.15% # attempts to use FU when none available
system.cpu1.iq.fu_full::SimdFloatCvt                0      0.00%     20.15% # attempts to use FU when none available
system.cpu1.iq.fu_full::SimdFloatDiv                0      0.00%     20.15% # attempts to use FU when none available
system.cpu1.iq.fu_full::SimdFloatMisc               0      0.00%     20.15% # attempts to use FU when none available
system.cpu1.iq.fu_full::SimdFloatMult               0      0.00%     20.15% # attempts to use FU when none available
system.cpu1.iq.fu_full::SimdFloatMultAcc            0      0.00%     20.15% # attempts to use FU when none available
system.cpu1.iq.fu_full::SimdFloatSqrt               0      0.00%     20.15% # attempts to use FU when none available
system.cpu1.iq.fu_full::SimdReduceAdd               0      0.00%     20.15% # attempts to use FU when none available
system.cpu1.iq.fu_full::SimdReduceAlu               0      0.00%     20.15% # attempts to use FU when none available
system.cpu1.iq.fu_full::SimdReduceCmp               0      0.00%     20.15% # attempts to use FU when none available
system.cpu1.iq.fu_full::SimdFloatReduceAdd            0      0.00%     20.15% # attempts to use FU when none available
system.cpu1.iq.fu_full::SimdFloatReduceCmp            0      0.00%     20.15% # attempts to use FU when none available
system.cpu1.iq.fu_full::SimdAes                     0      0.00%     20.15% # attempts to use FU when none available
system.cpu1.iq.fu_full::SimdAesMix                  0      0.00%     20.15% # attempts to use FU when none available
system.cpu1.iq.fu_full::SimdSha1Hash                0      0.00%     20.15% # attempts to use FU when none available
system.cpu1.iq.fu_full::SimdSha1Hash2               0      0.00%     20.15% # attempts to use FU when none available
system.cpu1.iq.fu_full::SimdSha256Hash              0      0.00%     20.15% # attempts to use FU when none available
system.cpu1.iq.fu_full::SimdSha256Hash2             0      0.00%     20.15% # attempts to use FU when none available
system.cpu1.iq.fu_full::SimdShaSigma2               0      0.00%     20.15% # attempts to use FU when none available
system.cpu1.iq.fu_full::SimdShaSigma3               0      0.00%     20.15% # attempts to use FU when none available
system.cpu1.iq.fu_full::SimdPredAlu                 0      0.00%     20.15% # attempts to use FU when none available
system.cpu1.iq.fu_full::MemRead                425088     70.02%     90.17% # attempts to use FU when none available
system.cpu1.iq.fu_full::MemWrite                59684      9.83%    100.00% # attempts to use FU when none available
[...]
system.cpu1.dcache.WriteReq_mshr_miss_latency::.cpu1.data   2692375428                       # number of WriteReq MSHR miss cycles
system.cpu1.dcache.WriteReq_mshr_miss_latency::total   2692375428                       # number of WriteReq MSHR miss cycles
system.cpu1.dcache.WriteReq_mshr_miss_rate::.cpu1.data     0.040192                       # mshr miss rate for WriteReq accesses
system.cpu1.dcache.WriteReq_mshr_miss_rate::total     0.040192                       # mshr miss rate for WriteReq accesses
system.cpu1.dcache.WriteReq_avg_mshr_miss_latency::.cpu1.data 93394.457749                       # average WriteReq mshr miss latency
system.cpu1.dcache.WriteReq_avg_mshr_miss_latency::total 93394.457749                       # average WriteReq mshr miss latency
system.cpu1.dcache.LoadLockedReq_hits::.cpu1.data        30516                       # number of LoadLockedReq hits
system.cpu1.dcache.LoadLockedReq_hits::total        30516                       # number of LoadLockedReq hits
system.cpu1.dcache.LoadLockedReq_misses::.cpu1.data         1575                       # number of LoadLockedReq misses
system.cpu1.dcache.LoadLockedReq_misses::total         1575                       # number of LoadLockedReq misses
system.cpu1.dcache.LoadLockedReq_miss_latency::.cpu1.data     39502000                       # number of LoadLockedReq miss cycles
system.cpu1.dcache.LoadLockedReq_miss_latency::total     39502000                       # number of LoadLockedReq miss cycles
system.cpu1.dcache.LoadLockedReq_accesses::.cpu1.data        32091                       # number of LoadLockedReq accesses(hits+misses)
system.cpu1.dcache.LoadLockedReq_accesses::total        32091                       # number of LoadLockedReq accesses(hits+misses)
system.cpu1.dcache.LoadLockedReq_miss_rate::.cpu1.data     0.049079                       # miss rate for LoadLockedReq accesses
system.cpu1.dcache.LoadLockedReq_miss_rate::total     0.049079                       # miss rate for LoadLockedReq accesses
system.cpu1.dcache.LoadLockedReq_avg_miss_latency::.cpu1.data 25080.634921                       # average LoadLockedReq miss latency
system.cpu1.dcache.LoadLockedReq_avg_miss_latency::total 25080.634921                       # average LoadLockedReq miss latency
system.cpu1.dcache.LoadLockedReq_mshr_hits::.cpu1.data          459                       # number of LoadLockedReq MSHR hits
system.cpu1.dcache.LoadLockedReq_mshr_hits::total          459                       # number of LoadLockedReq MSHR hits
system.cpu1.dcache.LoadLockedReq_mshr_misses::.cpu1.data         1116                       # number of LoadLockedReq MSHR misses
system.cpu1.dcache.LoadLockedReq_mshr_misses::total         1116                       # number of LoadLockedReq MSHR misses
system.cpu1.dcache.LoadLockedReq_mshr_miss_latency::.cpu1.data     17144500                       # number of LoadLockedReq MSHR miss cycles
system.cpu1.dcache.LoadLockedReq_mshr_miss_latency::total     17144500                       # number of LoadLockedReq MSHR miss cycles
system.cpu1.dcache.LoadLockedReq_mshr_miss_rate::.cpu1.data     0.034776                       # mshr miss rate for LoadLockedReq accesses
system.cpu1.dcache.LoadLockedReq_mshr_miss_rate::total     0.034776                       # mshr miss rate for LoadLockedReq accesses
system.cpu1.dcache.LoadLockedReq_avg_mshr_miss_latency::.cpu1.data 15362.455197                       # average LoadLockedReq mshr miss latency
system.cpu1.dcache.LoadLockedReq_avg_mshr_miss_latency::total 15362.455197                       # average LoadLockedReq mshr miss latency
system.cpu1.dcache.StoreCondReq_hits::.cpu1.data        24844                       # number of StoreCondReq hits
system.cpu1.dcache.StoreCondReq_hits::total        24844                       # number of StoreCondReq hits
system.cpu1.dcache.StoreCondReq_misses::.cpu1.data         5844                       # number of StoreCondReq misses
system.cpu1.dcache.StoreCondReq_misses::total         5844                       # number of StoreCondReq misses
system.cpu1.dcache.StoreCondReq_miss_latency::.cpu1.data     46931000                       # number of StoreCondReq miss cycles
system.cpu1.dcache.StoreCondReq_miss_latency::total     46931000                       # number of StoreCondReq miss cycles
system.cpu1.dcache.StoreCondReq_accesses::.cpu1.data        30688                       # number of StoreCondReq accesses(hits+misses)
system.cpu1.dcache.StoreCondReq_accesses::total        30688                       # number of StoreCondReq accesses(hits+misses)
system.cpu1.dcache.StoreCondReq_miss_rate::.cpu1.data     0.190433                       # miss rate for StoreCondReq accesses
system.cpu1.dcache.StoreCondReq_miss_rate::total     0.190433                       # miss rate for StoreCondReq accesses
system.cpu1.dcache.StoreCondReq_avg_miss_latency::.cpu1.data  8030.629706                       # average StoreCondReq miss latency
system.cpu1.dcache.StoreCondReq_avg_miss_latency::total  8030.629706                       # average StoreCondReq miss latency
system.cpu1.dcache.StoreCondReq_mshr_misses::.cpu1.data         5700                       # number of StoreCondReq MSHR misses
system.cpu1.dcache.StoreCondReq_mshr_misses::total         5700                       # number of StoreCondReq MSHR misses
system.cpu1.dcache.StoreCondReq_mshr_miss_latency::.cpu1.data     41364000                       # number of StoreCondReq MSHR miss cycles
system.cpu1.dcache.StoreCondReq_mshr_miss_latency::total     41364000                       # number of StoreCondReq MSHR miss cycles
system.cpu1.dcache.StoreCondReq_mshr_miss_rate::.cpu1.data     0.185740                       # mshr miss rate for StoreCondReq accesses
system.cpu1.dcache.StoreCondReq_mshr_miss_rate::total     0.185740                       # mshr miss rate for StoreCondReq accesses
system.cpu1.dcache.StoreCondReq_avg_mshr_miss_latency::.cpu1.data  7256.842105                       # average StoreCondReq mshr miss latency
system.cpu1.dcache.StoreCondReq_avg_mshr_miss_latency::total  7256.842105                       # average StoreCondReq mshr miss latency
system.cpu1.dcache.StoreCondFailReq_miss_latency::.cpu1.data      3469500                       # number of StoreCondFailReq miss cycles
system.cpu1.dcache.StoreCondFailReq_miss_latency::total      3469500                       # number of StoreCondFailReq miss cycles
system.cpu1.dcache.StoreCondFailReq_avg_miss_latency::.cpu1.data          inf                       # average StoreCondFailReq miss latency
system.cpu1.dcache.StoreCondFailReq_avg_miss_latency::total          inf                       # average StoreCondFailReq miss latency
system.cpu1.dcache.StoreCondFailReq_mshr_miss_latency::.cpu1.data      3336500                       # number of StoreCondFailReq MSHR miss cycles
system.cpu1.dcache.StoreCondFailReq_mshr_miss_latency::total      3336500                       # number of StoreCondFailReq MSHR miss cycles
system.cpu1.dcache.StoreCondFailReq_avg_mshr_miss_latency::.cpu1.data          inf                       # average StoreCondFailReq mshr miss latency
system.cpu1.dcache.StoreCondFailReq_avg_mshr_miss_latency::total          inf                       # average StoreCondFailReq mshr miss latency
system.cpu1.dcache.SwapReq_hits::.cpu1.data         1097                       # number of SwapReq hits
system.cpu1.dcache.SwapReq_hits::total           1097                       # number of SwapReq hits
system.cpu1.dcache.SwapReq_misses::.cpu1.data         2875                       # number of SwapReq misses
system.cpu1.dcache.SwapReq_misses::total         2875                       # number of SwapReq misses
system.cpu1.dcache.SwapReq_miss_latency::.cpu1.data     57541000                       # number of SwapReq miss cycles
system.cpu1.dcache.SwapReq_miss_latency::total     57541000                       # number of SwapReq miss cycles
system.cpu1.dcache.SwapReq_accesses::.cpu1.data         3972                       # number of SwapReq accesses(hits+misses)
system.cpu1.dcache.SwapReq_accesses::total         3972                       # number of SwapReq accesses(hits+misses)
system.cpu1.dcache.SwapReq_miss_rate::.cpu1.data     0.723817                       # miss rate for SwapReq accesses
system.cpu1.dcache.SwapReq_miss_rate::total     0.723817                       # miss rate for SwapReq accesses
system.cpu1.dcache.SwapReq_avg_miss_latency::.cpu1.data 20014.260870                       # average SwapReq miss latency
system.cpu1.dcache.SwapReq_avg_miss_latency::total 20014.260870                       # average SwapReq miss latency
system.cpu1.dcache.SwapReq_mshr_misses::.cpu1.data         2875                       # number of SwapReq MSHR misses
system.cpu1.dcache.SwapReq_mshr_misses::total         2875                       # number of SwapReq MSHR misses
system.cpu1.dcache.SwapReq_mshr_miss_latency::.cpu1.data     54666000                       # number of SwapReq MSHR miss cycles
system.cpu1.dcache.SwapReq_mshr_miss_latency::total     54666000                       # number of SwapReq MSHR miss cycles
system.cpu1.dcache.SwapReq_mshr_miss_rate::.cpu1.data     0.723817                       # mshr miss rate for SwapReq accesses
system.cpu1.dcache.SwapReq_mshr_miss_rate::total     0.723817                       # mshr miss rate for SwapReq accesses
system.cpu1.dcache.SwapReq_avg_mshr_miss_latency::.cpu1.data 19014.260870                       # average SwapReq mshr miss latency
system.cpu1.dcache.SwapReq_avg_mshr_miss_latency::total 19014.260870                       # average SwapReq mshr miss latency
system.cpu1.dcache.tags.pwrStateResidencyTicks::UNDEFINED  42264694500                       # Cumulative time (in ticks) in various power states
system.cpu1.dcache.tags.tagsinuse           30.932271                       # Cycle average of tags in use
system.cpu1.dcache.tags.total_refs            9217449                       # Total number of references to valid blocks.
system.cpu1.dcache.tags.sampled_refs           639427                       # Sample count of references to valid blocks.
system.cpu1.dcache.tags.avg_refs            14.415170                       # Average number of references to valid blocks.
system.cpu1.dcache.tags.warmup_cycle                0                       # Cycle when the warmup percentage was hit.
system.cpu1.dcache.tags.occ_blocks::.cpu1.data    30.932271                       # Average occupied blocks per requestor
system.cpu1.dcache.tags.occ_percent::.cpu1.data     0.966633                       # Average percentage of cache occupancy
system.cpu1.dcache.tags.occ_percent::total     0.966633                       # Average percentage of cache occupancy
system.cpu1.dcache.tags.occ_task_id_blocks::1024           29                       # Occupied blocks per task id
system.cpu1.dcache.tags.age_task_id_blocks_1024::1           29                       # Occupied blocks per task id
system.cpu1.dcache.tags.occ_task_id_percent::1024     0.906250                       # Percentage of cache occupancy per task id
system.cpu1.dcache.tags.tag_accesses         24154379                       # Number of tag accesses
system.cpu1.dcache.tags.data_accesses        24154379                       # Number of data accesses
system.cpu_clk_domain.clock                       500                       # Clock period in ticks
system.tol2bus.pwrStateResidencyTicks::UNDEFINED  42264694500                       # Cumulative time (in ticks) in various power states
system.tol2bus.trans_dist::ReadResp           2628343                       # Transaction distribution
system.tol2bus.trans_dist::ReadRespWithInvalidate           14                       # Transaction distribution
system.tol2bus.trans_dist::WritebackDirty       835085                       # Transaction distribution
system.tol2bus.trans_dist::WritebackClean      2266093                       # Transaction distribution
system.tol2bus.trans_dist::CleanEvict         3675693                       # Transaction distribution
system.tol2bus.trans_dist::UpgradeReq           14028                       # Transaction distribution
system.tol2bus.trans_dist::SCUpgradeReq         22598                       # Transaction distribution
system.tol2bus.trans_dist::UpgradeResp          36626                       # Transaction distribution
system.tol2bus.trans_dist::SCUpgradeFailReq          471                       # Transaction distribution
system.tol2bus.trans_dist::UpgradeFailResp          471                       # Transaction distribution
system.tol2bus.trans_dist::ReadExReq           143770                       # Transaction distribution
system.tol2bus.trans_dist::ReadExResp          143770                       # Transaction distribution
system.tol2bus.trans_dist::ReadCleanReq        179223                       # Transaction distribution
system.tol2bus.trans_dist::ReadSharedReq      2449133                       # Transaction distribution
system.tol2bus.trans_dist::InvalidateReq          110                       # Transaction distribution
system.tol2bus.trans_dist::InvalidateResp          110                       # Transaction distribution
system.tol2bus.pkt_count_system.cpu0.icache.mem_side::system.l2.cpu_side       328865                       # Packet count per connected master and slave (bytes)
system.tol2bus.pkt_count_system.cpu0.dcache.mem_side::system.l2.cpu_side      2101407                       # Packet count per connected master and slave (bytes)
system.tol2bus.pkt_count_system.cpu1.icache.mem_side::system.l2.cpu_side        70029                       # Packet count per connected master and slave (bytes)
system.tol2bus.pkt_count_system.cpu1.dcache.mem_side::system.l2.cpu_side      1901844                       # Packet count per connected master and slave (bytes)
system.tol2bus.pkt_count_system.cpu2.icache.mem_side::system.l2.cpu_side        69927                       # Packet count per connected master and slave (bytes)
system.tol2bus.pkt_count_system.cpu2.dcache.mem_side::system.l2.cpu_side      1875159                       # Packet count per connected master and slave (bytes)
system.tol2bus.pkt_count_system.cpu3.icache.mem_side::system.l2.cpu_side        68850                       # Packet count per connected master and slave (bytes)
system.tol2bus.pkt_count_system.cpu3.dcache.mem_side::system.l2.cpu_side      1839738                       # Packet count per connected master and slave (bytes)
system.tol2bus.pkt_count::total               8255819                       # Packet count per connected master and slave (bytes)
system.tol2bus.pkt_size_system.cpu0.icache.mem_side::system.l2.cpu_side     14031616                       # Cumulative packet size per connected master and slave (bytes)
system.tol2bus.pkt_size_system.cpu0.dcache.mem_side::system.l2.cpu_side     88556928                       # Cumulative packet size per connected master and slave (bytes)
system.tol2bus.pkt_size_system.cpu1.icache.mem_side::system.l2.cpu_side      2987904                       # Cumulative packet size per connected master and slave (bytes)
system.tol2bus.pkt_size_system.cpu1.dcache.mem_side::system.l2.cpu_side     80143744                       # Cumulative packet size per connected master and slave (bytes)
system.tol2bus.pkt_size_system.cpu2.icache.mem_side::system.l2.cpu_side      2983552                       # Cumulative packet size per connected master and slave (bytes)
system.tol2bus.pkt_size_system.cpu2.dcache.mem_side::system.l2.cpu_side     79002368                       # Cumulative packet size per connected master and slave (bytes)
system.tol2bus.pkt_size_system.cpu3.icache.mem_side::system.l2.cpu_side      2937600                       # Cumulative packet size per connected master and slave (bytes)
system.tol2bus.pkt_size_system.cpu3.dcache.mem_side::system.l2.cpu_side     77526656                       # Cumulative packet size per connected master and slave (bytes)
system.tol2bus.pkt_size::total              348170368                       # Cumulative packet size per connected master and slave (bytes)
system.tol2bus.snoops                         4139719                       # Total snoops (count)
system.tol2bus.snoopTraffic                  27751296                       # Total snoop traffic (bytes)
system.tol2bus.snoop_fanout::samples          6863633                       # Request fanout histogram
system.tol2bus.snoop_fanout::mean            0.476908                       # Request fanout histogram
system.tol2bus.snoop_fanout::stdev           0.711708                       # Request fanout histogram
system.tol2bus.snoop_fanout::underflows             0      0.00%      0.00% # Request fanout histogram
system.tol2bus.snoop_fanout::0                4216896     61.44%     61.44% # Request fanout histogram
system.tol2bus.snoop_fanout::1                2241206     32.65%     94.09% # Request fanout histogram
system.tol2bus.snoop_fanout::2                 219025      3.19%     97.28% # Request fanout histogram
system.tol2bus.snoop_fanout::3                 151958      2.21%     99.50% # Request fanout histogram
system.tol2bus.snoop_fanout::4                  34548      0.50%    100.00% # Request fanout histogram
system.tol2bus.snoop_fanout::5                      0      0.00%    100.00% # Request fanout histogram
system.tol2bus.snoop_fanout::6                      0      0.00%    100.00% # Request fanout histogram
system.tol2bus.snoop_fanout::7                      0      0.00%    100.00% # Request fanout histogram
system.tol2bus.snoop_fanout::8                      0      0.00%    100.00% # Request fanout histogram
system.tol2bus.snoop_fanout::overflows              0      0.00%    100.00% # Request fanout histogram
system.tol2bus.snoop_fanout::min_value              0                       # Request fanout histogram
system.tol2bus.snoop_fanout::max_value              4                       # Request fanout histogram
system.tol2bus.snoop_fanout::total            6863633                       # Request fanout histogram
system.tol2bus.reqLayer0.occupancy         5488997067                       # Layer occupancy (ticks)
system.tol2bus.reqLayer0.utilization             13.0                       # Layer utilization (%)
system.tol2bus.respLayer5.occupancy         954112021                       # Layer occupancy (ticks)
system.tol2bus.respLayer5.utilization             2.3                       # Layer utilization (%)
system.tol2bus.respLayer4.occupancy          37237872                       # Layer occupancy (ticks)
system.tol2bus.respLayer4.utilization             0.1                       # Layer utilization (%)
system.tol2bus.respLayer7.occupancy         936085725                       # Layer occupancy (ticks)
system.tol2bus.respLayer7.utilization             2.2                       # Layer utilization (%)
system.tol2bus.respLayer6.occupancy          36673910                       # Layer occupancy (ticks)
system.tol2bus.respLayer6.utilization             0.1                       # Layer utilization (%)
system.tol2bus.respLayer1.occupancy        1066041518                       # Layer occupancy (ticks)
system.tol2bus.respLayer1.utilization             2.5                       # Layer utilization (%)
system.tol2bus.respLayer0.occupancy         164685884                       # Layer occupancy (ticks)
system.tol2bus.respLayer0.utilization             0.4                       # Layer utilization (%)
system.tol2bus.respLayer3.occupancy         967310925                       # Layer occupancy (ticks)
system.tol2bus.respLayer3.utilization             2.3                       # Layer utilization (%)
system.tol2bus.respLayer2.occupancy          37185588                       # Layer occupancy (ticks)
system.tol2bus.respLayer2.utilization             0.1                       # Layer utilization (%)

---------- End Simulation Statistics   ----------
