
---------- Begin Simulation Statistics ----------
final_tick                               534579608000                       # Number of ticks from beginning of simulation (restored from checkpoints and never reset)
host_inst_rate                                  86314                       # Simulator instruction rate (inst/s)
host_mem_usage                                 739252                       # Number of bytes of host memory used
host_op_rate                                    86601                       # Simulator op (including micro ops) rate (op/s)
host_seconds                                  7106.42                       # Real time elapsed on the host
host_tick_rate                               75224893                       # Simulator tick rate (ticks/s)
sim_freq                                 1000000000000                       # Frequency of simulated ticks
sim_insts                                   613385710                       # Number of instructions simulated
sim_ops                                     615424483                       # Number of ops (including micro ops) simulated
sim_seconds                                  0.534580                       # Number of seconds simulated
sim_ticks                                534579608000                       # Number of ticks simulated
system.cpu0.branchPred.BTBCorrect                   0                       # Number of correct BTB predictions (this stat may not work properly.
system.cpu0.branchPred.BTBHitPct            87.231502                       # BTB Hit Percentage
system.cpu0.branchPred.BTBHits               76131000                       # Number of BTB hits
system.cpu0.branchPred.BTBLookups            87274664                       # Number of BTB lookups
system.cpu0.branchPred.RASInCorrect                 0                       # Number of incorrect RAS predictions.
system.cpu0.branchPred.condIncorrect          7160028                       # Number of conditional branches incorrect
system.cpu0.branchPred.condPredicted        118031465                       # Number of conditional branches predicted
system.cpu0.branchPred.indirectHits          10302581                       # Number of indirect target hits.
system.cpu0.branchPred.indirectLookups       10400509                       # Number of indirect predictor lookups.
system.cpu0.branchPred.indirectMisses           97928                       # Number of indirect misses.
system.cpu0.branchPred.lookups              151533713                       # Number of BP lookups
system.cpu0.branchPred.usedRAS                      0                       # Number of times the RAS was used to get a target.
system.cpu0.branchPredindirectMispredicted      1053076                       # Number of mispredicted indirect branches.
system.cpu0.commit.amos                        509391                       # Number of atomic instructions committed
system.cpu0.commit.branchMispredicts          4943872                       # The number of times a branch was mispredicted
system.cpu0.commit.branches                 138972427                       # Number of branches committed
system.cpu0.commit.bw_lim_events             18551649                       # number cycles where commit BW limit reached
system.cpu0.commit.commitNonSpecStalls        1532379                       # The number of times commit has been forced to stall to communicate backwards
system.cpu0.commit.commitSquashedInsts       44995578                       # The number of squashed insts skipped by commit
system.cpu0.commit.committedInsts           561782111                       # Number of instructions committed
system.cpu0.commit.committedOps             562292792                       # Number of ops (including micro ops) committed
system.cpu0.commit.committed_per_cycle::samples    962703007                       # Number of insts commited each cycle
system.cpu0.commit.committed_per_cycle::mean     0.584077                       # Number of insts commited each cycle
system.cpu0.commit.committed_per_cycle::stdev     1.374603                       # Number of insts commited each cycle
system.cpu0.commit.committed_per_cycle::underflows            0      0.00%      0.00% # Number of insts commited each cycle
system.cpu0.commit.committed_per_cycle::0    691663013     71.85%     71.85% # Number of insts commited each cycle
system.cpu0.commit.committed_per_cycle::1    165328986     17.17%     89.02% # Number of insts commited each cycle
system.cpu0.commit.committed_per_cycle::2     37031020      3.85%     92.87% # Number of insts commited each cycle
system.cpu0.commit.committed_per_cycle::3     34868494      3.62%     96.49% # Number of insts commited each cycle
system.cpu0.commit.committed_per_cycle::4      9774903      1.02%     97.50% # Number of insts commited each cycle
system.cpu0.commit.committed_per_cycle::5      3344884      0.35%     97.85% # Number of insts commited each cycle
system.cpu0.commit.committed_per_cycle::6       921346      0.10%     97.95% # Number of insts commited each cycle
system.cpu0.commit.committed_per_cycle::7      1218712      0.13%     98.07% # Number of insts commited each cycle
system.cpu0.commit.committed_per_cycle::8     18551649      1.93%    100.00% # Number of insts commited each cycle
system.cpu0.commit.committed_per_cycle::overflows            0      0.00%    100.00% # Number of insts commited each cycle
system.cpu0.commit.committed_per_cycle::min_value            0                       # Number of insts commited each cycle
system.cpu0.commit.committed_per_cycle::max_value            8                       # Number of insts commited each cycle
system.cpu0.commit.committed_per_cycle::total    962703007                       # Number of insts commited each cycle
system.cpu0.commit.fp_insts                        46                       # Number of committed floating point instructions.
system.cpu0.commit.function_calls            11672245                       # Number of function calls committed.
system.cpu0.commit.int_insts                543422227                       # Number of committed integer instructions.
system.cpu0.commit.loads                    174755975                       # Number of loads committed
system.cpu0.commit.membars                    1019970                       # Number of memory barriers committed
system.cpu0.commit.op_class_0::No_OpClass      1019976      0.18%      0.18% # Class of committed instruction
system.cpu0.commit.op_class_0::IntAlu       311046171     55.32%     55.50% # Class of committed instruction
system.cpu0.commit.op_class_0::IntMult        4135910      0.74%     56.23% # Class of committed instruction
system.cpu0.commit.op_class_0::IntDiv         1017773      0.18%     56.42% # Class of committed instruction
system.cpu0.commit.op_class_0::FloatAdd             0      0.00%     56.42% # Class of committed instruction
system.cpu0.commit.op_class_0::FloatCmp             4      0.00%     56.42% # Class of committed instruction
system.cpu0.commit.op_class_0::FloatCvt            12      0.00%     56.42% # Class of committed instruction
system.cpu0.commit.op_class_0::FloatMult            0      0.00%     56.42% # Class of committed instruction
system.cpu0.commit.op_class_0::FloatMultAcc            0      0.00%     56.42% # Class of committed instruction
system.cpu0.commit.op_class_0::FloatDiv             2      0.00%     56.42% # Class of committed instruction
system.cpu0.commit.op_class_0::FloatMisc            4      0.00%     56.42% # Class of committed instruction
system.cpu0.commit.op_class_0::FloatSqrt            0      0.00%     56.42% # Class of committed instruction
system.cpu0.commit.op_class_0::SimdAdd              0      0.00%     56.42% # Class of committed instruction
system.cpu0.commit.op_class_0::SimdAddAcc            0      0.00%     56.42% # Class of committed instruction
system.cpu0.commit.op_class_0::SimdAlu              0      0.00%     56.42% # Class of committed instruction
system.cpu0.commit.op_class_0::SimdCmp              0      0.00%     56.42% # Class of committed instruction
system.cpu0.commit.op_class_0::SimdCvt              0      0.00%     56.42% # Class of committed instruction
system.cpu0.commit.op_class_0::SimdMisc             0      0.00%     56.42% # Class of committed instruction
system.cpu0.commit.op_class_0::SimdMult             0      0.00%     56.42% # Class of committed instruction
system.cpu0.commit.op_class_0::SimdMultAcc            0      0.00%     56.42% # Class of committed instruction
system.cpu0.commit.op_class_0::SimdShift            0      0.00%     56.42% # Class of committed instruction
system.cpu0.commit.op_class_0::SimdShiftAcc            0      0.00%     56.42% # Class of committed instruction
system.cpu0.commit.op_class_0::SimdDiv              0      0.00%     56.42% # Class of committed instruction
system.cpu0.commit.op_class_0::SimdSqrt             0      0.00%     56.42% # Class of committed instruction
system.cpu0.commit.op_class_0::SimdFloatAdd            0      0.00%     56.42% # Class of committed instruction
system.cpu0.commit.op_class_0::SimdFloatAlu            0      0.00%     56.42% # Class of committed instruction
system.cpu0.commit.op_class_0::SimdFloatCmp            0      0.00%     56.42% # Class of committed instruction
system.cpu0.commit.op_class_0::SimdFloatCvt            0      0.00%     56.42% # Class of committed instruction
system.cpu0.commit.op_class_0::SimdFloatDiv            0      0.00%     56.42% # Class of committed instruction
system.cpu0.commit.op_class_0::SimdFloatMisc            0      0.00%     56.42% # Class of committed instruction
system.cpu0.commit.op_class_0::SimdFloatMult            0      0.00%     56.42% # Class of committed instruction
system.cpu0.commit.op_class_0::SimdFloatMultAcc            0      0.00%     56.42% # Class of committed instruction
system.cpu0.commit.op_class_0::SimdFloatSqrt            0      0.00%     56.42% # Class of committed instruction
system.cpu0.commit.op_class_0::SimdReduceAdd            0      0.00%     56.42% # Class of committed instruction
system.cpu0.commit.op_class_0::SimdReduceAlu            0      0.00%     56.42% # Class of committed instruction
system.cpu0.commit.op_class_0::SimdReduceCmp            0      0.00%     56.42% # Class of committed instruction
system.cpu0.commit.op_class_0::SimdFloatReduceAdd            0      0.00%     56.42% # Class of committed instruction
system.cpu0.commit.op_class_0::SimdFloatReduceCmp            0      0.00%     56.42% # Class of committed instruction
system.cpu0.commit.op_class_0::SimdAes              0      0.00%     56.42% # Class of committed instruction
system.cpu0.commit.op_class_0::SimdAesMix            0      0.00%     56.42% # Class of committed instruction
system.cpu0.commit.op_class_0::SimdSha1Hash            0      0.00%     56.42% # Class of committed instruction
system.cpu0.commit.op_class_0::SimdSha1Hash2            0      0.00%     56.42% # Class of committed instruction
system.cpu0.commit.op_class_0::SimdSha256Hash            0      0.00%     56.42% # Class of committed instruction
system.cpu0.commit.op_class_0::SimdSha256Hash2            0      0.00%     56.42% # Class of committed instruction
system.cpu0.commit.op_class_0::SimdShaSigma2            0      0.00%     56.42% # Class of committed instruction
system.cpu0.commit.op_class_0::SimdShaSigma3            0      0.00%     56.42% # Class of committed instruction
system.cpu0.commit.op_class_0::SimdPredAlu            0      0.00%     56.42% # Class of committed instruction
system.cpu0.commit.op_class_0::MemRead      175265358     31.17%     87.59% # Class of committed instruction
system.cpu0.commit.op_class_0::MemWrite      69807558     12.41%    100.00% # Class of committed instruction
system.cpu0.commit.op_class_0::FloatMemRead            8      0.00%    100.00% # Class of committed instruction
system.cpu0.commit.op_class_0::FloatMemWrite           16      0.00%    100.00% # Class of committed instruction
system.cpu0.commit.op_class_0::IprAccess            0      0.00%    100.00% # Class of committed instruction
system.cpu0.commit.op_class_0::InstPrefetch            0      0.00%    100.00% # Class of committed instruction
system.cpu0.commit.op_class_0::total        562292792                       # Class of committed instruction
system.cpu0.commit.refs                     245072940                       # Number of memory references committed
system.cpu0.commit.swp_count                        0                       # Number of s/w prefetches committed
system.cpu0.commit.vec_insts                        0                       # Number of committed Vector instructions.
system.cpu0.committedInsts                  561782111                       # Number of Instructions Simulated
system.cpu0.committedOps                    562292792                       # Number of Ops (including micro ops) Simulated
system.cpu0.cpi                              1.880192                       # CPI: Cycles Per Instruction
system.cpu0.cpi_total                        1.880192                       # CPI: Total CPI of All Threads
system.cpu0.decode.BlockedCycles             90547868                       # Number of cycles decode is blocked
system.cpu0.decode.BranchMispred              2222846                       # Number of times decode detected a branch misprediction
system.cpu0.decode.BranchResolved            75329636                       # Number of times decode resolved a branch
system.cpu0.decode.DecodedInsts             620545445                       # Number of instructions handled by decode
system.cpu0.decode.IdleCycles               437695086                       # Number of cycles decode is idle
system.cpu0.decode.RunCycles                436387547                       # Number of cycles decode is running
system.cpu0.decode.SquashCycles               4950962                       # Number of cycles decode is squashing
system.cpu0.decode.SquashedInsts              4190720                       # Number of squashed instructions handled by decode
system.cpu0.decode.UnblockCycles              1843428                       # Number of cycles decode is unblocking
system.cpu0.dtb.accesses                            0                       # DTB accesses
system.cpu0.dtb.hits                                0                       # DTB hits
system.cpu0.dtb.misses                              0                       # DTB misses
system.cpu0.dtb.read_accesses                       0                       # DTB read accesses
system.cpu0.dtb.read_hits                           0                       # DTB read hits
system.cpu0.dtb.read_misses                         0                       # DTB read misses
system.cpu0.dtb.write_accesses                      0                       # DTB write accesses
system.cpu0.dtb.write_hits                          0                       # DTB write hits
system.cpu0.dtb.write_misses                        0                       # DTB write misses
system.cpu0.fetch.Branches                  151533713                       # Number of branches that fetch encountered
system.cpu0.fetch.CacheLines                108652060                       # Number of cache lines fetched
system.cpu0.fetch.Cycles                    532308379                       # Number of cycles fetch has run and was not squashing or blocked
system.cpu0.fetch.IcacheSquashes              3099551                       # Number of outstanding Icache misses that were squashed
system.cpu0.fetch.IcacheWaitRetryStallCycles          118                       # Number of stall cycles due to full MSHR
system.cpu0.fetch.Insts                     632791231                       # Number of instructions fetch has processed
system.cpu0.fetch.MiscStallCycles                  13                       # Number of cycles fetch has spent waiting on interrupts, or bad addresses, or out of MSHRs
system.cpu0.fetch.SquashCycles               14334236                       # Number of cycles fetch has spent squashing
system.cpu0.fetch.branchRate                 0.143463                       # Number of branch fetches per cycle
system.cpu0.fetch.icacheStallCycles         431949263                       # Number of cycles fetch is stalled on an Icache miss
system.cpu0.fetch.predictedBranches          86433581                       # Number of branches that fetch has predicted taken
system.cpu0.fetch.rate                       0.599087                       # Number of inst fetches per cycle
system.cpu0.fetch.rateDist::samples         971424891                       # Number of instructions fetched each cycle (Total)
system.cpu0.fetch.rateDist::mean             0.653130                       # Number of instructions fetched each cycle (Total)
system.cpu0.fetch.rateDist::stdev            0.910065                       # Number of instructions fetched each cycle (Total)
system.cpu0.fetch.rateDist::underflows              0      0.00%      0.00% # Number of instructions fetched each cycle (Total)
system.cpu0.fetch.rateDist::0               520574057     53.59%     53.59% # Number of instructions fetched each cycle (Total)
system.cpu0.fetch.rateDist::1               334185766     34.40%     87.99% # Number of instructions fetched each cycle (Total)
system.cpu0.fetch.rateDist::2                70534110      7.26%     95.25% # Number of instructions fetched each cycle (Total)
system.cpu0.fetch.rateDist::3                36441784      3.75%     99.00% # Number of instructions fetched each cycle (Total)
system.cpu0.fetch.rateDist::4                 4193489      0.43%     99.43% # Number of instructions fetched each cycle (Total)
system.cpu0.fetch.rateDist::5                 2925195      0.30%     99.74% # Number of instructions fetched each cycle (Total)
system.cpu0.fetch.rateDist::6                  527449      0.05%     99.79% # Number of instructions fetched each cycle (Total)
system.cpu0.fetch.rateDist::7                 1021729      0.11%     99.89% # Number of instructions fetched each cycle (Total)
system.cpu0.fetch.rateDist::8                 1021312      0.11%    100.00% # Number of instructions fetched each cycle (Total)
system.cpu0.fetch.rateDist::overflows               0      0.00%    100.00% # Number of instructions fetched each cycle (Total)
system.cpu0.fetch.rateDist::min_value               0                       # Number of instructions fetched each cycle (Total)
system.cpu0.fetch.rateDist::max_value               8                       # Number of instructions fetched each cycle (Total)
system.cpu0.fetch.rateDist::total           971424891                       # Number of instructions fetched each cycle (Total)
system.cpu0.fp_regfile_reads                       40                       # number of floating regfile reads
system.cpu0.fp_regfile_writes                      25                       # number of floating regfile writes
system.cpu0.idleCycles                       84833619                       # Total number of cycles that the CPU has spent unscheduled due to idling
system.cpu0.iew.branchMispredicts             4996724                       # Number of branch mispredicts detected at execute
system.cpu0.iew.exec_branches               143359494                       # Number of branches executed
system.cpu0.iew.exec_nop                            0                       # number of nop insts executed
system.cpu0.iew.exec_rate                    0.559576                       # Inst execution rate
system.cpu0.iew.exec_refs                   261163425                       # number of memory reference insts executed
system.cpu0.iew.exec_stores                  73256555                       # Number of stores executed
system.cpu0.iew.exec_swp                            0                       # number of swp insts executed
system.cpu0.iew.iewBlockCycles               74128919                       # Number of cycles IEW is blocking
system.cpu0.iew.iewDispLoadInsts            191622225                       # Number of dispatched load instructions
system.cpu0.iew.iewDispNonSpecInsts           1143726                       # Number of dispatched non-speculative instructions
system.cpu0.iew.iewDispSquashedInsts          2257714                       # Number of squashed instructions skipped by dispatch
system.cpu0.iew.iewDispStoreInsts            76109272                       # Number of dispatched store instructions
system.cpu0.iew.iewDispatchedInsts          607273350                       # Number of instructions dispatched to IQ
system.cpu0.iew.iewExecLoadInsts            187906870                       # Number of load instructions executed
system.cpu0.iew.iewExecSquashedInsts          4738250                       # Number of squashed instructions skipped in execute
system.cpu0.iew.iewExecutedInsts            591056832                       # Number of executed instructions
system.cpu0.iew.iewIQFullEvents                590974                       # Number of times the IQ has become full, causing a stall
system.cpu0.iew.iewIdleCycles                       0                       # Number of cycles IEW is idle
system.cpu0.iew.iewLSQFullEvents              2301931                       # Number of times the LSQ has become full, causing a stall
system.cpu0.iew.iewSquashCycles               4950962                       # Number of cycles IEW is squashing
system.cpu0.iew.iewUnblockCycles              3401864                       # Number of cycles IEW is unblocking
system.cpu0.iew.lsq.thread0.blockedLoads            0                       # Number of blocked loads due to partial load-store forwarding
system.cpu0.iew.lsq.thread0.cacheBlocked        66748                       # Number of times an access to memory failed due to the cache being blocked
system.cpu0.iew.lsq.thread0.forwLoads        10180759                       # Number of loads that had data forwarded from stores
system.cpu0.iew.lsq.thread0.ignoredResponses        26906                       # Number of memory responses ignored because the instruction is squashed
system.cpu0.iew.lsq.thread0.invAddrLoads            0                       # Number of loads ignored due to an invalid address
system.cpu0.iew.lsq.thread0.invAddrSwpfs            0                       # Number of software prefetches ignored due to an invalid address
system.cpu0.iew.lsq.thread0.memOrderViolation         7447                       # Number of memory ordering violations
system.cpu0.iew.lsq.thread0.rescheduledLoads      2386769                       # Number of loads that were rescheduled
system.cpu0.iew.lsq.thread0.squashedLoads     16866250                       # Number of loads squashed
system.cpu0.iew.lsq.thread0.squashedStores      5792307                       # Number of stores squashed
system.cpu0.iew.memOrderViolationEvents          7447                       # Number of memory order violations
system.cpu0.iew.predictedNotTakenIncorrect       888234                       # Number of branches that were predicted not taken incorrectly
system.cpu0.iew.predictedTakenIncorrect       4108490                       # Number of branches that were predicted taken incorrectly
system.cpu0.iew.wb_consumers                239486171                       # num instructions consuming a value
system.cpu0.iew.wb_count                    585367778                       # cumulative count of insts written-back
system.cpu0.iew.wb_fanout                    0.879291                       # average fanout of values written-back
system.cpu0.iew.wb_producers                210578129                       # num instructions producing a value
system.cpu0.iew.wb_rate                      0.554190                       # insts written-back per cycle
system.cpu0.iew.wb_sent                     585405777                       # cumulative count of insts sent to commit
system.cpu0.int_regfile_reads               720839978                       # number of integer regfile reads
system.cpu0.int_regfile_writes              373745843                       # number of integer regfile writes
system.cpu0.ipc                              0.531860                       # IPC: Instructions Per Cycle
system.cpu0.ipc_total                        0.531860                       # IPC: Total IPC of All Threads
system.cpu0.iq.FU_type_0::No_OpClass          1020998      0.17%      0.17% # Type of FU issued
system.cpu0.iq.FU_type_0::IntAlu            325733434     54.67%     54.84% # Type of FU issued
system.cpu0.iq.FU_type_0::IntMult             4138841      0.69%     55.54% # Type of FU issued
system.cpu0.iq.FU_type_0::IntDiv              1018049      0.17%     55.71% # Type of FU issued
system.cpu0.iq.FU_type_0::FloatAdd                  0      0.00%     55.71% # Type of FU issued
system.cpu0.iq.FU_type_0::FloatCmp                  4      0.00%     55.71% # Type of FU issued
system.cpu0.iq.FU_type_0::FloatCvt                 12      0.00%     55.71% # Type of FU issued
system.cpu0.iq.FU_type_0::FloatMult                 0      0.00%     55.71% # Type of FU issued
system.cpu0.iq.FU_type_0::FloatMultAcc              0      0.00%     55.71% # Type of FU issued
system.cpu0.iq.FU_type_0::FloatDiv                  2      0.00%     55.71% # Type of FU issued
system.cpu0.iq.FU_type_0::FloatMisc                 4      0.00%     55.71% # Type of FU issued
system.cpu0.iq.FU_type_0::FloatSqrt                 0      0.00%     55.71% # Type of FU issued
system.cpu0.iq.FU_type_0::SimdAdd                   0      0.00%     55.71% # Type of FU issued
system.cpu0.iq.FU_type_0::SimdAddAcc                0      0.00%     55.71% # Type of FU issued
system.cpu0.iq.FU_type_0::SimdAlu                   0      0.00%     55.71% # Type of FU issued
system.cpu0.iq.FU_type_0::SimdCmp                   0      0.00%     55.71% # Type of FU issued
system.cpu0.iq.FU_type_0::SimdCvt                   0      0.00%     55.71% # Type of FU issued
system.cpu0.iq.FU_type_0::SimdMisc                  0      0.00%     55.71% # Type of FU issued
system.cpu0.iq.FU_type_0::SimdMult                  0      0.00%     55.71% # Type of FU issued
system.cpu0.iq.FU_type_0::SimdMultAcc               0      0.00%     55.71% # Type of FU issued
system.cpu0.iq.FU_type_0::SimdShift                 0      0.00%     55.71% # Type of FU issued
system.cpu0.iq.FU_type_0::SimdShiftAcc              0      0.00%     55.71% # Type of FU issued
system.cpu0.iq.FU_type_0::SimdDiv                   0      0.00%     55.71% # Type of FU issued
system.cpu0.iq.FU_type_0::SimdSqrt                  0      0.00%     55.71% # Type of FU issued
system.cpu0.iq.FU_type_0::SimdFloatAdd              0      0.00%     55.71% # Type of FU issued
system.cpu0.iq.FU_type_0::SimdFloatAlu              0      0.00%     55.71% # Type of FU issued
system.cpu0.iq.FU_type_0::SimdFloatCmp              0      0.00%     55.71% # Type of FU issued
system.cpu0.iq.FU_type_0::SimdFloatCvt              0      0.00%     55.71% # Type of FU issued
system.cpu0.iq.FU_type_0::SimdFloatDiv              0      0.00%     55.71% # Type of FU issued
system.cpu0.iq.FU_type_0::SimdFloatMisc             0      0.00%     55.71% # Type of FU issued
system.cpu0.iq.FU_type_0::SimdFloatMult             0      0.00%     55.71% # Type of FU issued
system.cpu0.iq.FU_type_0::SimdFloatMultAcc            0      0.00%     55.71% # Type of FU issued
system.cpu0.iq.FU_type_0::SimdFloatSqrt             0      0.00%     55.71% # Type of FU issued
system.cpu0.iq.FU_type_0::SimdReduceAdd             0      0.00%     55.71% # Type of FU issued
system.cpu0.iq.FU_type_0::SimdReduceAlu             0      0.00%     55.71% # Type of FU issued
system.cpu0.iq.FU_type_0::SimdReduceCmp             0      0.00%     55.71% # Type of FU issued
system.cpu0.iq.FU_type_0::SimdFloatReduceAdd            0      0.00%     55.71% # Type of FU issued
system.cpu0.iq.FU_type_0::SimdFloatReduceCmp            0      0.00%     55.71% # Type of FU issued
system.cpu0.iq.FU_type_0::SimdAes                   0      0.00%     55.71% # Type of FU issued
system.cpu0.iq.FU_type_0::SimdAesMix                0      0.00%     55.71% # Type of FU issued
system.cpu0.iq.FU_type_0::SimdSha1Hash              0      0.00%     55.71% # Type of FU issued
system.cpu0.iq.FU_type_0::SimdSha1Hash2             0      0.00%     55.71% # Type of FU issued
system.cpu0.iq.FU_type_0::SimdSha256Hash            0      0.00%     55.71% # Type of FU issued
system.cpu0.iq.FU_type_0::SimdSha256Hash2            0      0.00%     55.71% # Type of FU issued
system.cpu0.iq.FU_type_0::SimdShaSigma2             0      0.00%     55.71% # Type of FU issued
system.cpu0.iq.FU_type_0::SimdShaSigma3             0      0.00%     55.71% # Type of FU issued
system.cpu0.iq.FU_type_0::SimdPredAlu               0      0.00%     55.71% # Type of FU issued
system.cpu0.iq.FU_type_0::MemRead           190163568     31.92%     87.63% # Type of FU issued
system.cpu0.iq.FU_type_0::MemWrite           73720137     12.37%    100.00% # Type of FU issued
system.cpu0.iq.FU_type_0::FloatMemRead             18      0.00%    100.00% # Type of FU issued
system.cpu0.iq.FU_type_0::FloatMemWrite            16      0.00%    100.00% # Type of FU issued
system.cpu0.iq.FU_type_0::IprAccess                 0      0.00%    100.00% # Type of FU issued
system.cpu0.iq.FU_type_0::InstPrefetch              0      0.00%    100.00% # Type of FU issued
system.cpu0.iq.FU_type_0::total             595795083                       # Type of FU issued
system.cpu0.iq.fp_alu_accesses                     58                       # Number of floating point alu accesses
system.cpu0.iq.fp_inst_queue_reads                114                       # Number of floating instruction queue reads
system.cpu0.iq.fp_inst_queue_wakeup_accesses           49                       # Number of floating instruction queue wakeup accesses
system.cpu0.iq.fp_inst_queue_writes               144                       # Number of floating instruction queue writes
system.cpu0.iq.fu_busy_cnt                     679300                       # FU busy when requested
system.cpu0.iq.fu_busy_rate                  0.001140                       # FU busy rate (busy events/executed inst)
system.cpu0.iq.fu_full::No_OpClass                  0      0.00%      0.00% # attempts to use FU when none available
system.cpu0.iq.fu_full::IntAlu                 118950     17.51%     17.51% # attempts to use FU when none available
system.cpu0.iq.fu_full::IntMult                     0      0.00%     17.51% # attempts to use FU when none available
system.cpu0.iq.fu_full::IntDiv                      0      0.00%     17.51% # attempts to use FU when none available
system.cpu0.iq.fu_full::FloatAdd                    0      0.00%     17.51% # attempts to use FU when none available
system.cpu0.iq.fu_full::FloatCmp                    0      0.00%     17.51% # attempts to use FU when none available
system.cpu0.iq.fu_full::FloatCvt                    0      0.00%     17.51% # attempts to use FU when none available
system.cpu0.iq.fu_full::FloatMult                   0      0.00%     17.51% # attempts to use FU when none available
system.cpu0.iq.fu_full::FloatMultAcc                0      0.00%     17.51% # attempts to use FU when none available
system.cpu0.iq.fu_full::FloatDiv                    0      0.00%     17.51% # attempts to use FU when none available
system.cpu0.iq.fu_full::FloatMisc                   0      0.00%     17.51% # attempts to use FU when none available
system.cpu0.iq.fu_full::FloatSqrt                   0      0.00%     17.51% # attempts to use FU when none available
system.cpu0.iq.fu_full::SimdAdd                     0      0.00%     17.51% # attempts to use FU when none available
system.cpu0.iq.fu_full::SimdAddAcc                  0      0.00%     17.51% # attempts to use FU when none available
system.cpu0.iq.fu_full::SimdAlu                     0      0.00%     17.51% # attempts to use FU when none available
system.cpu0.iq.fu_full::SimdCmp                     0      0.00%     17.51% # attempts to use FU when none available
system.cpu0.iq.fu_full::SimdCvt                     0      0.00%     17.51% # attempts to use FU when none available
system.cpu0.iq.fu_full::SimdMisc                    0      0.00%     17.51% # attempts to use FU when none available
system.cpu0.iq.fu_full::SimdMult                    0      0.00%     17.51% # attempts to use FU when none available
system.cpu0.iq.fu_full::SimdMultAcc                 0      0.00%     17.51% # attempts to use FU when none available
system.cpu0.iq.fu_full::SimdShift                   0      0.00%     17.51% # attempts to use FU when none available
system.cpu0.iq.fu_full::SimdShiftAcc                0      0.00%     17.51% # attempts to use FU when none available
system.cpu0.iq.fu_full::SimdDiv                     0      0.00%     17.51% # attempts to use FU when none available
system.cpu0.iq.fu_full::SimdSqrt                    0      0.00%     17.51% # attempts to use FU when none available
system.cpu0.iq.fu_full::SimdFloatAdd                0      0.00%     17.51% # attempts to use FU when none available
system.cpu0.iq.fu_full::SimdFloatAlu                0      0.00%     17.51% # attempts to use FU when none available
system.cpu0.iq.fu_full::SimdFloatCmp                0      0.00%     17.51% # attempts to use FU when none available
system.cpu0.iq.fu_full::SimdFloatCvt                0      0.00%     17.51% # attempts to use FU when none available
system.cpu0.iq.fu_full::SimdFloatDiv                0      0.00%     17.51% # attempts to use FU when none available
system.cpu0.iq.fu_full::SimdFloatMisc               0      0.00%     17.51% # attempts to use FU when none available
system.cpu0.iq.fu_full::SimdFloatMult               0      0.00%     17.51% # attempts to use FU when none available
system.cpu0.iq.fu_full::SimdFloatMultAcc            0      0.00%     17.51% # attempts to use FU when none available
system.cpu0.iq.fu_full::SimdFloatSqrt               0      0.00%     17.51% # attempts to use FU when none available
system.cpu0.iq.fu_full::SimdReduceAdd               0      0.00%     17.51% # attempts to use FU when none available
system.cpu0.iq.fu_full::SimdReduceAlu               0      0.00%     17.51% # attempts to use FU when none available
system.cpu0.iq.fu_full::SimdReduceCmp               0      0.00%     17.51% # attempts to use FU when none available
system.cpu0.iq.fu_full::SimdFloatReduceAdd            0      0.00%     17.51% # attempts to use FU when none available
system.cpu0.iq.fu_full::SimdFloatReduceCmp            0      0.00%     17.51% # attempts to use FU when none available
system.cpu0.iq.fu_full::SimdAes                     0      0.00%     17.51% # attempts to use FU when none available
system.cpu0.iq.fu_full::SimdAesMix                  0      0.00%     17.51% # attempts to use FU when none available
system.cpu0.iq.fu_full::SimdSha1Hash                0      0.00%     17.51% # attempts to use FU when none available
system.cpu0.iq.fu_full::SimdSha1Hash2               0      0.00%     17.51% # attempts to use FU when none available
system.cpu0.iq.fu_full::SimdSha256Hash              0      0.00%     17.51% # attempts to use FU when none available
system.cpu0.iq.fu_full::SimdSha256Hash2             0      0.00%     17.51% # attempts to use FU when none available
system.cpu0.iq.fu_full::SimdShaSigma2               0      0.00%     17.51% # attempts to use FU when none available
system.cpu0.iq.fu_full::SimdShaSigma3               0      0.00%     17.51% # attempts to use FU when none available
system.cpu0.iq.fu_full::SimdPredAlu                 0      0.00%     17.51% # attempts to use FU when none available
system.cpu0.iq.fu_full::MemRead                509044     74.94%     92.45% # attempts to use FU when none available
system.cpu0.iq.fu_full::MemWrite                51304      7.55%    100.00% # attempts to use FU when none available
system.cpu0.iq.fu_full::FloatMemRead                0      0.00%    100.00% # attempts to use FU when none available
system.cpu0.iq.fu_full::FloatMemWrite               2      0.00%    100.00% # attempts to use FU when none available
system.cpu0.iq.fu_full::IprAccess                   0      0.00%    100.00% # attempts to use FU when none available
system.cpu0.iq.fu_full::InstPrefetch                0      0.00%    100.00% # attempts to use FU when none available
system.cpu0.iq.int_alu_accesses             595453327                       # Number of integer alu accesses
system.cpu0.iq.int_inst_queue_reads        2163738003                       # Number of integer instruction queue reads
system.cpu0.iq.int_inst_queue_wakeup_accesses    585367729                       # Number of integer instruction queue wakeup accesses
system.cpu0.iq.int_inst_queue_writes        652260562                       # Number of integer instruction queue writes
system.cpu0.iq.iqInstsAdded                 603849828                       # Number of instructions added to the IQ (excludes non-spec)
system.cpu0.iq.iqInstsIssued                595795083                       # Number of instructions issued
system.cpu0.iq.iqNonSpecInstsAdded            3423522                       # Number of non-speculative instructions added to the IQ
system.cpu0.iq.iqSquashedInstsExamined       44980554                       # Number of squashed instructions iterated over during squash; mainly for profiling
system.cpu0.iq.iqSquashedInstsIssued            43761                       # Number of squashed instructions issued
system.cpu0.iq.iqSquashedNonSpecRemoved       1891143                       # Number of squashed non-spec instructions that were removed
system.cpu0.iq.iqSquashedOperandsExamined     23111056                       # Number of squashed operands that are examined and possibly removed from graph
system.cpu0.iq.issued_per_cycle::samples    971424891                       # Number of insts issued each cycle
system.cpu0.iq.issued_per_cycle::mean        0.613321                       # Number of insts issued each cycle
system.cpu0.iq.issued_per_cycle::stdev       0.813285                       # Number of insts issued each cycle
system.cpu0.iq.issued_per_cycle::underflows            0      0.00%      0.00% # Number of insts issued each cycle
system.cpu0.iq.issued_per_cycle::0          537343365     55.31%     55.31% # Number of insts issued each cycle
system.cpu0.iq.issued_per_cycle::1          303990222     31.29%     86.61% # Number of insts issued each cycle
system.cpu0.iq.issued_per_cycle::2          106785138     10.99%     97.60% # Number of insts issued each cycle
system.cpu0.iq.issued_per_cycle::3           17908328      1.84%     99.44% # Number of insts issued each cycle
system.cpu0.iq.issued_per_cycle::4            3789646      0.39%     99.83% # Number of insts issued each cycle
system.cpu0.iq.issued_per_cycle::5             453433      0.05%     99.88% # Number of insts issued each cycle
system.cpu0.iq.issued_per_cycle::6            1039187      0.11%     99.99% # Number of insts issued each cycle
system.cpu0.iq.issued_per_cycle::7              75846      0.01%    100.00% # Number of insts issued each cycle
system.cpu0.iq.issued_per_cycle::8              39726      0.00%    100.00% # Number of insts issued each cycle
system.cpu0.iq.issued_per_cycle::overflows            0      0.00%    100.00% # Number of insts issued each cycle
system.cpu0.iq.issued_per_cycle::min_value            0                       # Number of insts issued each cycle
system.cpu0.iq.issued_per_cycle::max_value            8                       # Number of insts issued each cycle
system.cpu0.iq.issued_per_cycle::total      971424891                       # Number of insts issued each cycle
system.cpu0.iq.rate                          0.564062                       # Inst issue rate
system.cpu0.iq.vec_alu_accesses                     0                       # Number of vector alu accesses
system.cpu0.iq.vec_inst_queue_reads                 0                       # Number of vector instruction queue reads
system.cpu0.iq.vec_inst_queue_wakeup_accesses            0                       # Number of vector instruction queue wakeup accesses
system.cpu0.iq.vec_inst_queue_writes                0                       # Number of vector instruction queue writes
system.cpu0.itb.accesses                            0                       # DTB accesses
system.cpu0.itb.hits                                0                       # DTB hits
system.cpu0.itb.misses                              0                       # DTB misses
system.cpu0.itb.read_accesses                       0                       # DTB read accesses
system.cpu0.itb.read_hits                           0                       # DTB read hits
system.cpu0.itb.read_misses                         0                       # DTB read misses
system.cpu0.itb.write_accesses                      0                       # DTB write accesses
system.cpu0.itb.write_hits                          0                       # DTB write hits
system.cpu0.itb.write_misses                        0                       # DTB write misses
system.cpu0.memDep0.conflictingLoads         10101987                       # Number of conflicting loads.
system.cpu0.memDep0.conflictingStores         2216231                       # Number of conflicting stores.
system.cpu0.memDep0.insertedLoads           191622225                       # Number of loads inserted to the mem dependence unit.
system.cpu0.memDep0.insertedStores           76109272                       # Number of stores inserted to the mem dependence unit.
system.cpu0.misc_regfile_reads                   1037                       # number of misc regfile reads
system.cpu0.misc_regfile_writes                    22                       # number of misc regfile writes
system.cpu0.numCycles                      1056258510                       # number of cpu cycles simulated
system.cpu0.numWorkItemsCompleted                   0                       # number of work items this cpu completed
system.cpu0.numWorkItemsStarted                     0                       # number of work items this cpu started
system.cpu0.quiesceCycles                    12900809                       # Total number of cycles that CPU has spent quiesced or waiting for an interrupt
system.cpu0.rename.BlockCycles               80388537                       # Number of cycles rename is blocking
system.cpu0.rename.CommittedMaps            357812056                       # Number of HB maps that are committed
system.cpu0.rename.IQFullEvents               2326013                       # Number of times rename has blocked due to IQ full
system.cpu0.rename.IdleCycles               443415676                       # Number of cycles rename is idle
system.cpu0.rename.LQFullEvents               3654967                       # Number of times rename has blocked due to LQ full
system.cpu0.rename.ROBFullEvents                10848                       # Number of times rename has blocked due to ROB full
system.cpu0.rename.RenameLookups            750180956                       # Number of register rename lookups that rename has made
system.cpu0.rename.RenamedInsts             614700952                       # Number of instructions processed by rename
system.cpu0.rename.RenamedOperands          393559397                       # Number of destination operands rename has renamed
system.cpu0.rename.RunCycles                432018593                       # Number of cycles rename is running
system.cpu0.rename.SQFullEvents               4262107                       # Number of times rename has blocked due to SQ full
system.cpu0.rename.SquashCycles               4950962                       # Number of cycles rename is squashing
system.cpu0.rename.UnblockCycles             10549498                       # Number of cycles rename is unblocking
system.cpu0.rename.UndoneMaps                35747333                       # Number of HB maps that are undone due to squashing
system.cpu0.rename.fp_rename_lookups               42                       # Number of floating rename lookups
system.cpu0.rename.int_rename_lookups       750180914                       # Number of integer rename lookups
system.cpu0.rename.serializeStallCycles        101625                       # count of cycles rename stalled for serializing inst
system.cpu0.rename.serializingInsts              3183                       # count of serializing insts renamed
system.cpu0.rename.skidInsts                  5510408                       # count of insts added to the skid buffer
system.cpu0.rename.tempSerializingInsts          3171                       # count of temporary serializing insts renamed
system.cpu0.rob.rob_reads                  1551426819                       # The number of ROB reads
system.cpu0.rob.rob_writes                 1223304623                       # The number of ROB writes
system.cpu0.timesIdled                       15819088                       # Number of times that the entire CPU went into an idle state and unscheduled itself
system.cpu0.workload.numSyscalls                 1004                       # Number of system calls
system.cpu1.branchPred.BTBCorrect                   0                       # Number of correct BTB predictions (this stat may not work properly.
system.cpu1.branchPred.BTBHitPct            79.711558                       # BTB Hit Percentage
system.cpu1.branchPred.BTBHits                2899150                       # Number of BTB hits
system.cpu1.branchPred.BTBLookups             3637051                       # Number of BTB lookups
system.cpu1.branchPred.RASInCorrect                 0                       # Number of incorrect RAS predictions.
system.cpu1.branchPred.condIncorrect           390016                       # Number of conditional branches incorrect
system.cpu1.branchPred.condPredicted          4812715                       # Number of conditional branches predicted
system.cpu1.branchPred.indirectHits            137114                       # Number of indirect target hits.
system.cpu1.branchPred.indirectLookups         140077                       # Number of indirect predictor lookups.
system.cpu1.branchPred.indirectMisses            2963                       # Number of indirect misses.
system.cpu1.branchPred.lookups                5429150                       # Number of BP lookups
system.cpu1.branchPred.usedRAS                      0                       # Number of times the RAS was used to get a target.
system.cpu1.branchPredindirectMispredicted         8663                       # Number of mispredicted indirect branches.
system.cpu1.commit.amos                        509161                       # Number of atomic instructions committed
system.cpu1.commit.branchMispredicts           288415                       # The number of times a branch was mispredicted
system.cpu1.commit.branches                   4418730                       # Number of branches committed
system.cpu1.commit.bw_lim_events               461048                       # number cycles where commit BW limit reached
system.cpu1.commit.commitNonSpecStalls        1528166                       # The number of times commit has been forced to stall to communicate backwards
system.cpu1.commit.commitSquashedInsts        2352819                       # The number of squashed insts skipped by commit
system.cpu1.commit.committedInsts            19240362                       # Number of instructions committed
system.cpu1.commit.committedOps              19749720                       # Number of ops (including micro ops) committed
system.cpu1.commit.committed_per_cycle::samples    109558543                       # Number of insts commited each cycle
system.cpu1.commit.committed_per_cycle::mean     0.180266                       # Number of insts commited each cycle
system.cpu1.commit.committed_per_cycle::stdev     0.829935                       # Number of insts commited each cycle
system.cpu1.commit.committed_per_cycle::underflows            0      0.00%      0.00% # Number of insts commited each cycle
system.cpu1.commit.committed_per_cycle::0    101258176     92.42%     92.42% # Number of insts commited each cycle
system.cpu1.commit.committed_per_cycle::1      4127782      3.77%     96.19% # Number of insts commited each cycle
system.cpu1.commit.committed_per_cycle::2      1393568      1.27%     97.46% # Number of insts commited each cycle
system.cpu1.commit.committed_per_cycle::3      1319700      1.20%     98.67% # Number of insts commited each cycle
system.cpu1.commit.committed_per_cycle::4       371593      0.34%     99.01% # Number of insts commited each cycle
system.cpu1.commit.committed_per_cycle::5        99682      0.09%     99.10% # Number of insts commited each cycle
system.cpu1.commit.committed_per_cycle::6       486422      0.44%     99.54% # Number of insts commited each cycle
system.cpu1.commit.committed_per_cycle::7        40572      0.04%     99.58% # Number of insts commited each cycle
system.cpu1.commit.committed_per_cycle::8       461048      0.42%    100.00% # Number of insts commited each cycle
system.cpu1.commit.committed_per_cycle::overflows            0      0.00%    100.00% # Number of insts commited each cycle
system.cpu1.commit.committed_per_cycle::min_value            0                       # Number of insts commited each cycle
system.cpu1.commit.committed_per_cycle::max_value            8                       # Number of insts commited each cycle
system.cpu1.commit.committed_per_cycle::total    109558543                       # Number of insts commited each cycle
system.cpu1.commit.fp_insts                        12                       # Number of committed floating point instructions.
system.cpu1.commit.function_calls              227306                       # Number of function calls committed.
system.cpu1.commit.int_insts                 18549320                       # Number of committed integer instructions.
system.cpu1.commit.loads                      5319659                       # Number of loads committed
system.cpu1.commit.membars                    1018403                       # Number of memory barriers committed
system.cpu1.commit.op_class_0::No_OpClass      1018403      5.16%      5.16% # Class of committed instruction
system.cpu1.commit.op_class_0::IntAlu        11643237     58.95%     64.11% # Class of committed instruction
system.cpu1.commit.op_class_0::IntMult             42      0.00%     64.11% # Class of committed instruction
system.cpu1.commit.op_class_0::IntDiv              84      0.00%     64.11% # Class of committed instruction
system.cpu1.commit.op_class_0::FloatAdd             0      0.00%     64.11% # Class of committed instruction
system.cpu1.commit.op_class_0::FloatCmp             0      0.00%     64.11% # Class of committed instruction
system.cpu1.commit.op_class_0::FloatCvt             0      0.00%     64.11% # Class of committed instruction
system.cpu1.commit.op_class_0::FloatMult            0      0.00%     64.11% # Class of committed instruction
system.cpu1.commit.op_class_0::FloatMultAcc            0      0.00%     64.11% # Class of committed instruction
system.cpu1.commit.op_class_0::FloatDiv             0      0.00%     64.11% # Class of committed instruction
system.cpu1.commit.op_class_0::FloatMisc            0      0.00%     64.11% # Class of committed instruction
system.cpu1.commit.op_class_0::FloatSqrt            0      0.00%     64.11% # Class of committed instruction
system.cpu1.commit.op_class_0::SimdAdd              0      0.00%     64.11% # Class of committed instruction
system.cpu1.commit.op_class_0::SimdAddAcc            0      0.00%     64.11% # Class of committed instruction
system.cpu1.commit.op_class_0::SimdAlu              0      0.00%     64.11% # Class of committed instruction
system.cpu1.commit.op_class_0::SimdCmp              0      0.00%     64.11% # Class of committed instruction
system.cpu1.commit.op_class_0::SimdCvt              0      0.00%     64.11% # Class of committed instruction
system.cpu1.commit.op_class_0::SimdMisc             0      0.00%     64.11% # Class of committed instruction
system.cpu1.commit.op_class_0::SimdMult             0      0.00%     64.11% # Class of committed instruction
system.cpu1.commit.op_class_0::SimdMultAcc            0      0.00%     64.11% # Class of committed instruction
system.cpu1.commit.op_class_0::SimdShift            0      0.00%     64.11% # Class of committed instruction
system.cpu1.commit.op_class_0::SimdShiftAcc            0      0.00%     64.11% # Class of committed instruction
system.cpu1.commit.op_class_0::SimdDiv              0      0.00%     64.11% # Class of committed instruction
system.cpu1.commit.op_class_0::SimdSqrt             0      0.00%     64.11% # Class of committed instruction
system.cpu1.commit.op_class_0::SimdFloatAdd            0      0.00%     64.11% # Class of committed instruction
system.cpu1.commit.op_class_0::SimdFloatAlu            0      0.00%     64.11% # Class of committed instruction
system.cpu1.commit.op_class_0::SimdFloatCmp            0      0.00%     64.11% # Class of committed instruction
system.cpu1.commit.op_class_0::SimdFloatCvt            0      0.00%     64.11% # Class of committed instruction
system.cpu1.commit.op_class_0::SimdFloatDiv            0      0.00%     64.11% # Class of committed instruction
system.cpu1.commit.op_class_0::SimdFloatMisc            0      0.00%     64.11% # Class of committed instruction
system.cpu1.commit.op_class_0::SimdFloatMult            0      0.00%     64.11% # Class of committed instruction
system.cpu1.commit.op_class_0::SimdFloatMultAcc            0      0.00%     64.11% # Class of committed instruction
system.cpu1.commit.op_class_0::SimdFloatSqrt            0      0.00%     64.11% # Class of committed instruction
system.cpu1.commit.op_class_0::SimdReduceAdd            0      0.00%     64.11% # Class of committed instruction
system.cpu1.commit.op_class_0::SimdReduceAlu            0      0.00%     64.11% # Class of committed instruction
system.cpu1.commit.op_class_0::SimdReduceCmp            0      0.00%     64.11% # Class of committed instruction
system.cpu1.commit.op_class_0::SimdFloatReduceAdd            0      0.00%     64.11% # Class of committed instruction
system.cpu1.commit.op_class_0::SimdFloatReduceCmp            0      0.00%     64.11% # Class of committed instruction
system.cpu1.commit.op_class_0::SimdAes              0      0.00%     64.11% # Class of committed instruction
system.cpu1.commit.op_class_0::SimdAesMix            0      0.00%     64.11% # Class of committed instruction
system.cpu1.commit.op_class_0::SimdSha1Hash            0      0.00%     64.11% # Class of committed instruction
system.cpu1.commit.op_class_0::SimdSha1Hash2            0      0.00%     64.11% # Class of committed instruction
system.cpu1.commit.op_class_0::SimdSha256Hash            0      0.00%     64.11% # Class of committed instruction
system.cpu1.commit.op_class_0::SimdSha256Hash2            0      0.00%     64.11% # Class of committed instruction
system.cpu1.commit.op_class_0::SimdShaSigma2            0      0.00%     64.11% # Class of committed instruction
system.cpu1.commit.op_class_0::SimdShaSigma3            0      0.00%     64.11% # Class of committed instruction
system.cpu1.commit.op_class_0::SimdPredAlu            0      0.00%     64.11% # Class of committed instruction
system.cpu1.commit.op_class_0::MemRead        5828820     29.51%     93.62% # Class of committed instruction
system.cpu1.commit.op_class_0::MemWrite       1259122      6.38%    100.00% # Class of committed instruction
system.cpu1.commit.op_class_0::FloatMemRead            0      0.00%    100.00% # Class of committed instruction
system.cpu1.commit.op_class_0::FloatMemWrite           12      0.00%    100.00% # Class of committed instruction
system.cpu1.commit.op_class_0::IprAccess            0      0.00%    100.00% # Class of committed instruction
system.cpu1.commit.op_class_0::InstPrefetch            0      0.00%    100.00% # Class of committed instruction
system.cpu1.commit.op_class_0::total         19749720                       # Class of committed instruction
system.cpu1.commit.refs                       7087954                       # Number of memory references committed
system.cpu1.commit.swp_count                        0                       # Number of s/w prefetches committed
system.cpu1.commit.vec_insts                        0                       # Number of committed Vector instructions.
system.cpu1.committedInsts                   19240362                       # Number of Instructions Simulated
system.cpu1.committedOps                     19749720                       # Number of Ops (including micro ops) Simulated
system.cpu1.cpi                              5.745139                       # CPI: Cycles Per Instruction
system.cpu1.cpi_total                        5.745139                       # CPI: Total CPI of All Threads
system.cpu1.decode.BlockedCycles             96755906                       # Number of cycles decode is blocked
system.cpu1.decode.BranchMispred               109827                       # Number of times decode detected a branch misprediction
system.cpu1.decode.BranchResolved             2767189                       # Number of times decode resolved a branch
system.cpu1.decode.DecodedInsts              23131814                       # Number of instructions handled by decode
system.cpu1.decode.IdleCycles                 3197842                       # Number of cycles decode is idle
system.cpu1.decode.RunCycles                  8638668                       # Number of cycles decode is running
system.cpu1.decode.SquashCycles                288800                       # Number of cycles decode is squashing
system.cpu1.decode.SquashedInsts               264187                       # Number of squashed instructions handled by decode
system.cpu1.decode.UnblockCycles              1157593                       # Number of cycles decode is unblocking
system.cpu1.dtb.accesses                            0                       # DTB accesses
system.cpu1.dtb.hits                                0                       # DTB hits
system.cpu1.dtb.misses                              0                       # DTB misses
system.cpu1.dtb.read_accesses                       0                       # DTB read accesses
system.cpu1.dtb.read_hits                           0                       # DTB read hits
system.cpu1.dtb.read_misses                         0                       # DTB read misses
system.cpu1.dtb.write_accesses                      0                       # DTB write accesses
system.cpu1.dtb.write_hits                          0                       # DTB write hits
system.cpu1.dtb.write_misses                        0                       # DTB write misses
system.cpu1.fetch.Branches                    5429150                       # Number of branches that fetch encountered
system.cpu1.fetch.CacheLines                  3167313                       # Number of cache lines fetched
system.cpu1.fetch.Cycles                    106167864                       # Number of cycles fetch has run and was not squashing or blocked
system.cpu1.fetch.IcacheSquashes                35884                       # Number of outstanding Icache misses that were squashed
system.cpu1.fetch.IcacheWaitRetryStallCycles           40                       # Number of stall cycles due to full MSHR
system.cpu1.fetch.Insts                      23694649                       # Number of instructions fetch has processed
system.cpu1.fetch.MiscStallCycles                   5                       # Number of cycles fetch has spent waiting on interrupts, or bad addresses, or out of MSHRs
system.cpu1.fetch.PendingTrapStallCycles           10                       # Number of stall cycles due to pending traps
system.cpu1.fetch.SquashCycles                 780802                       # Number of cycles fetch has spent squashing
system.cpu1.fetch.branchRate                 0.049115                       # Number of branch fetches per cycle
system.cpu1.fetch.icacheStallCycles           3480489                       # Number of cycles fetch is stalled on an Icache miss
system.cpu1.fetch.predictedBranches           3036264                       # Number of branches that fetch has predicted taken
system.cpu1.fetch.rate                       0.214356                       # Number of inst fetches per cycle
system.cpu1.fetch.rateDist::samples         110038809                       # Number of instructions fetched each cycle (Total)
system.cpu1.fetch.rateDist::mean             0.219967                       # Number of instructions fetched each cycle (Total)
system.cpu1.fetch.rateDist::stdev            0.649055                       # Number of instructions fetched each cycle (Total)
system.cpu1.fetch.rateDist::underflows              0      0.00%      0.00% # Number of instructions fetched each cycle (Total)
system.cpu1.fetch.rateDist::0                95188268     86.50%     86.50% # Number of instructions fetched each cycle (Total)
system.cpu1.fetch.rateDist::1                 8867058      8.06%     94.56% # Number of instructions fetched each cycle (Total)
system.cpu1.fetch.rateDist::2                 3493180      3.17%     97.74% # Number of instructions fetched each cycle (Total)
system.cpu1.fetch.rateDist::3                 1726416      1.57%     99.31% # Number of instructions fetched each cycle (Total)
system.cpu1.fetch.rateDist::4                  660544      0.60%     99.91% # Number of instructions fetched each cycle (Total)
system.cpu1.fetch.rateDist::5                   91453      0.08%     99.99% # Number of instructions fetched each cycle (Total)
system.cpu1.fetch.rateDist::6                   10998      0.01%    100.00% # Number of instructions fetched each cycle (Total)
system.cpu1.fetch.rateDist::7                     336      0.00%    100.00% # Number of instructions fetched each cycle (Total)
system.cpu1.fetch.rateDist::8                     556      0.00%    100.00% # Number of instructions fetched each cycle (Total)
system.cpu1.fetch.rateDist::overflows               0      0.00%    100.00% # Number of instructions fetched each cycle (Total)
system.cpu1.fetch.rateDist::min_value               0                       # Number of instructions fetched each cycle (Total)
system.cpu1.fetch.rateDist::max_value               8                       # Number of instructions fetched each cycle (Total)
system.cpu1.fetch.rateDist::total           110038809                       # Number of instructions fetched each cycle (Total)
system.cpu1.fp_regfile_reads                       12                       # number of floating regfile reads
system.cpu1.idleCycles                         499749                       # Total number of cycles that the CPU has spent unscheduled due to idling
system.cpu1.iew.branchMispredicts              306152                       # Number of branch mispredicts detected at execute
system.cpu1.iew.exec_branches                 4751711                       # Number of branches executed
system.cpu1.iew.exec_nop                            0                       # number of nop insts executed
system.cpu1.iew.exec_rate                    0.193864                       # Inst execution rate
system.cpu1.iew.exec_refs                     7733544                       # number of memory reference insts executed
system.cpu1.iew.exec_stores                   1864151                       # Number of stores executed
system.cpu1.iew.exec_swp                            0                       # number of swp insts executed
system.cpu1.iew.iewBlockCycles               83774330                       # Number of cycles IEW is blocking
system.cpu1.iew.iewDispLoadInsts              5955491                       # Number of dispatched load instructions
system.cpu1.iew.iewDispNonSpecInsts            510004                       # Number of dispatched non-speculative instructions
system.cpu1.iew.iewDispSquashedInsts           282811                       # Number of squashed instructions skipped by dispatch
system.cpu1.iew.iewDispStoreInsts             1934043                       # Number of dispatched store instructions
system.cpu1.iew.iewDispatchedInsts           22095254                       # Number of instructions dispatched to IQ
system.cpu1.iew.iewExecLoadInsts              5869393                       # Number of load instructions executed
system.cpu1.iew.iewExecSquashedInsts           280381                       # Number of squashed instructions skipped in execute
system.cpu1.iew.iewExecutedInsts             21429457                       # Number of executed instructions
system.cpu1.iew.iewIQFullEvents                378300                       # Number of times the IQ has become full, causing a stall
system.cpu1.iew.iewIdleCycles                       0                       # Number of cycles IEW is idle
system.cpu1.iew.iewLSQFullEvents              1250913                       # Number of times the LSQ has become full, causing a stall
system.cpu1.iew.iewSquashCycles                288800                       # Number of cycles IEW is squashing
system.cpu1.iew.iewUnblockCycles              2240461                       # Number of cycles IEW is unblocking
system.cpu1.iew.lsq.thread0.blockedLoads            0                       # Number of blocked loads due to partial load-store forwarding
system.cpu1.iew.lsq.thread0.cacheBlocked        13306                       # Number of times an access to memory failed due to the cache being blocked
system.cpu1.iew.lsq.thread0.forwLoads          119812                       # Number of loads that had data forwarded from stores
system.cpu1.iew.lsq.thread0.ignoredResponses         4052                       # Number of memory responses ignored because the instruction is squashed
system.cpu1.iew.lsq.thread0.invAddrLoads            0                       # Number of loads ignored due to an invalid address
system.cpu1.iew.lsq.thread0.invAddrSwpfs            0                       # Number of software prefetches ignored due to an invalid address
system.cpu1.iew.lsq.thread0.memOrderViolation          360                       # Number of memory ordering violations
system.cpu1.iew.lsq.thread0.rescheduledLoads          980                       # Number of loads that were rescheduled
system.cpu1.iew.lsq.thread0.squashedLoads       635832                       # Number of loads squashed
system.cpu1.iew.lsq.thread0.squashedStores       165748                       # Number of stores squashed
system.cpu1.iew.memOrderViolationEvents           360                       # Number of memory order violations
system.cpu1.iew.predictedNotTakenIncorrect        90743                       # Number of branches that were predicted not taken incorrectly
system.cpu1.iew.predictedTakenIncorrect        215409                       # Number of branches that were predicted taken incorrectly
system.cpu1.iew.wb_consumers                 11851366                       # num instructions consuming a value
system.cpu1.iew.wb_count                     21190544                       # cumulative count of insts written-back
system.cpu1.iew.wb_fanout                    0.867452                       # average fanout of values written-back
system.cpu1.iew.wb_producers                 10280496                       # num instructions producing a value
system.cpu1.iew.wb_rate                      0.191703                       # insts written-back per cycle
system.cpu1.iew.wb_sent                      21197213                       # cumulative count of insts sent to commit
system.cpu1.int_regfile_reads                26732753                       # number of integer regfile reads
system.cpu1.int_regfile_writes               14197405                       # number of integer regfile writes
system.cpu1.ipc                              0.174060                       # IPC: Instructions Per Cycle
system.cpu1.ipc_total                        0.174060                       # IPC: Total IPC of All Threads
system.cpu1.iq.FU_type_0::No_OpClass          1018606      4.69%      4.69% # Type of FU issued
system.cpu1.iq.FU_type_0::IntAlu             12876230     59.31%     64.00% # Type of FU issued
system.cpu1.iq.FU_type_0::IntMult                  49      0.00%     64.00% # Type of FU issued
system.cpu1.iq.FU_type_0::IntDiv                   85      0.00%     64.00% # Type of FU issued
system.cpu1.iq.FU_type_0::FloatAdd                  0      0.00%     64.00% # Type of FU issued
system.cpu1.iq.FU_type_0::FloatCmp                  0      0.00%     64.00% # Type of FU issued
system.cpu1.iq.FU_type_0::FloatCvt                  0      0.00%     64.00% # Type of FU issued
system.cpu1.iq.FU_type_0::FloatMult                 0      0.00%     64.00% # Type of FU issued
system.cpu1.iq.FU_type_0::FloatMultAcc              0      0.00%     64.00% # Type of FU issued
system.cpu1.iq.FU_type_0::FloatDiv                  0      0.00%     64.00% # Type of FU issued
system.cpu1.iq.FU_type_0::FloatMisc                 0      0.00%     64.00% # Type of FU issued
system.cpu1.iq.FU_type_0::FloatSqrt                 0      0.00%     64.00% # Type of FU issued
system.cpu1.iq.FU_type_0::SimdAdd                   0      0.00%     64.00% # Type of FU issued
system.cpu1.iq.FU_type_0::SimdAddAcc                0      0.00%     64.00% # Type of FU issued
system.cpu1.iq.FU_type_0::SimdAlu                   0      0.00%     64.00% # Type of FU issued
system.cpu1.iq.FU_type_0::SimdCmp                   0      0.00%     64.00% # Type of FU issued
system.cpu1.iq.FU_type_0::SimdCvt                   0      0.00%     64.00% # Type of FU issued
system.cpu1.iq.FU_type_0::SimdMisc                  0      0.00%     64.00% # Type of FU issued
system.cpu1.iq.FU_type_0::SimdMult                  0      0.00%     64.00% # Type of FU issued
system.cpu1.iq.FU_type_0::SimdMultAcc               0      0.00%     64.00% # Type of FU issued
system.cpu1.iq.FU_type_0::SimdShift                 0      0.00%     64.00% # Type of FU issued
system.cpu1.iq.FU_type_0::SimdShiftAcc              0      0.00%     64.00% # Type of FU issued
system.cpu1.iq.FU_type_0::SimdDiv                   0      0.00%     64.00% # Type of FU issued
system.cpu1.iq.FU_type_0::SimdSqrt                  0      0.00%     64.00% # Type of FU issued
system.cpu1.iq.FU_type_0::SimdFloatAdd              0      0.00%     64.00% # Type of FU issued
system.cpu1.iq.FU_type_0::SimdFloatAlu              0      0.00%     64.00% # Type of FU issued
system.cpu1.iq.FU_type_0::SimdFloatCmp              0      0.00%     64.00% # Type of FU issued
system.cpu1.iq.FU_type_0::SimdFloatCvt              0      0.00%     64.00% # Type of FU issued
system.cpu1.iq.FU_type_0::SimdFloatDiv              0      0.00%     64.00% # Type of FU issued
system.cpu1.iq.FU_type_0::SimdFloatMisc             0      0.00%     64.00% # Type of FU issued
system.cpu1.iq.FU_type_0::SimdFloatMult             0      0.00%     64.00% # Type of FU issued
system.cpu1.iq.FU_type_0::SimdFloatMultAcc            0      0.00%     64.00% # Type of FU issued
system.cpu1.iq.FU_type_0::SimdFloatSqrt             0      0.00%     64.00% # Type of FU issued
system.cpu1.iq.FU_type_0::SimdReduceAdd             0      0.00%     64.00% # Type of FU issued
system.cpu1.iq.FU_type_0::SimdReduceAlu             0      0.00%     64.00% # Type of FU issued
system.cpu1.iq.FU_type_0::SimdReduceCmp             0      0.00%     64.00% # Type of FU issued
system.cpu1.iq.FU_type_0::SimdFloatReduceAdd            0      0.00%     64.00% # Type of FU issued
system.cpu1.iq.FU_type_0::SimdFloatReduceCmp            0      0.00%     64.00% # Type of FU issued
system.cpu1.iq.FU_type_0::SimdAes                   0      0.00%     64.00% # Type of FU issued
system.cpu1.iq.FU_type_0::SimdAesMix                0      0.00%     64.00% # Type of FU issued
system.cpu1.iq.FU_type_0::SimdSha1Hash              0      0.00%     64.00% # Type of FU issued
system.cpu1.iq.FU_type_0::SimdSha1Hash2             0      0.00%     64.00% # Type of FU issued
system.cpu1.iq.FU_type_0::SimdSha256Hash            0      0.00%     64.00% # Type of FU issued
system.cpu1.iq.FU_type_0::SimdSha256Hash2            0      0.00%     64.00% # Type of FU issued
system.cpu1.iq.FU_type_0::SimdShaSigma2             0      0.00%     64.00% # Type of FU issued
system.cpu1.iq.FU_type_0::SimdShaSigma3             0      0.00%     64.00% # Type of FU issued
system.cpu1.iq.FU_type_0::SimdPredAlu               0      0.00%     64.00% # Type of FU issued
system.cpu1.iq.FU_type_0::MemRead             6443926     29.68%     93.69% # Type of FU issued
system.cpu1.iq.FU_type_0::MemWrite            1370930      6.31%    100.00% # Type of FU issued
system.cpu1.iq.FU_type_0::FloatMemRead              0      0.00%    100.00% # Type of FU issued
system.cpu1.iq.FU_type_0::FloatMemWrite            12      0.00%    100.00% # Type of FU issued
system.cpu1.iq.FU_type_0::IprAccess                 0      0.00%    100.00% # Type of FU issued
system.cpu1.iq.FU_type_0::InstPrefetch              0      0.00%    100.00% # Type of FU issued
system.cpu1.iq.FU_type_0::total              21709838                       # Type of FU issued
system.cpu1.iq.fp_alu_accesses                     14                       # Number of floating point alu accesses
system.cpu1.iq.fp_inst_queue_reads                 26                       # Number of floating instruction queue reads
system.cpu1.iq.fp_inst_queue_wakeup_accesses           12                       # Number of floating instruction queue wakeup accesses
system.cpu1.iq.fp_inst_queue_writes                12                       # Number of floating instruction queue writes
system.cpu1.iq.fu_busy_cnt                     564600                       # FU busy when requested
system.cpu1.iq.fu_busy_rate                  0.026007                       # FU busy rate (busy events/executed inst)
system.cpu1.iq.fu_full::No_OpClass                  0      0.00%      0.00% # attempts to use FU when none available
system.cpu1.iq.fu_full::IntAlu                  98306     17.41%     17.41% # attempts to use FU when none available
system.cpu1.iq.fu_full::IntMult                     0      0.00%     17.41% # attempts to use FU when none available
system.cpu1.iq.fu_full::IntDiv                     11      0.00%     17.41% # attempts to use FU when none available
system.cpu1.iq.fu_full::FloatAdd                    0      0.00%     17.41% # attempts to use FU when none available
system.cpu1.iq.fu_full::FloatCmp                    0      0.00%     17.41% # attempts to use FU when none available
system.cpu1.iq.fu_full::FloatCvt                    0      0.00%     17.41% # attempts to use FU when none available
system.cpu1.iq.fu_full::FloatMult                   0      0.00%     17.41% # attempts to use FU when none available
system.cpu1.iq.fu_full::FloatMultAcc                0      0.00%     17.41% # attempts to use FU when none available
system.cpu1.iq.fu_full::FloatDiv                    0      0.00%     17.41% # attempts to use FU when none available
system.cpu1.iq.fu_full::FloatMisc                   0      0.00%     17.41% # attempts to use FU when none available
system.cpu1.iq.fu_full::FloatSqrt                   0      0.00%     17.41% # attempts to use FU when none available
system.cpu1.iq.fu_full::SimdAdd                     0      0.00%     17.41% # attempts to use FU when none available
system.cpu1.iq.fu_full::SimdAddAcc                  0      0.00%     17.41% # attempts to use FU when none available
system.cpu1.iq.fu_full::SimdAlu                     0      0.00%     17.41% # attempts to use FU when none available
system.cpu1.iq.fu_full::SimdCmp                     0      0.00%     17.41% # attempts to use FU when none available
system.cpu1.iq.fu_full::SimdCvt                     0      0.00%     17.41% # attempts to use FU when none available
system.cpu1.iq.fu_full::SimdMisc                    0      0.00%     17.41% # attempts to use FU when none available
system.cpu1.iq.fu_full::SimdMult                    0      0.00%     17.41% # attempts to use FU when none available
system.cpu1.iq.fu_full::SimdMultAcc                 0      0.00%     17.41% # attempts to use FU when none available
system.cpu1.iq.fu_full::SimdShift                   0      0.00%     17.41% # attempts to use FU when none available
system.cpu1.iq.fu_full::SimdShiftAcc                0      0.00%     17.41% # attempts to use FU when none available
system.cpu1.iq.fu_full::SimdDiv                     0      0.00%     17.41% # attempts to use FU when none available
system.cpu1.iq.fu_full::SimdSqrt                    0      0.00%     17.41% # attempts to use FU when none available
system.cpu1.iq.fu_full::SimdFloatAdd                0      0.00%     17.41% # attempts to use FU when none available
system.cpu1.iq.fu_full::SimdFloatAlu                0      0.00%     17.41% # attempts to use FU when none available
system.cpu1.iq.fu_full::SimdFloatCmp                0      0.00%     17.41% # attempts to use FU when none available
system.cpu1.iq.fu_full::SimdFloatCvt                0      0.00%     17.41% # attempts to use FU when none available
system.cpu1.iq.fu_full::SimdFloatDiv                0      0.00%     17.41% # attempts to use FU when none available
system.cpu1.iq.fu_full::SimdFloatMisc               0      0.00%     17.41% # attempts to use FU when none available
system.cpu1.iq.fu_full::SimdFloatMult               0      0.00%     17.41% # attempts to use FU when none available
system.cpu1.iq.fu_full::SimdFloatMultAcc            0      0.00%     17.41% # attempts to use FU when none available
system.cpu1.iq.fu_full::SimdFloatSqrt               0      0.00%     17.41% # attempts to use FU when none available
system.cpu1.iq.fu_full::SimdReduceAdd               0      0.00%     17.41% # attempts to use FU when none available
system.cpu1.iq.fu_full::SimdReduceAlu               0      0.00%     17.41% # attempts to use FU when none available
system.cpu1.iq.fu_full::SimdReduceCmp               0      0.00%     17.41% # attempts to use FU when none available
system.cpu1.iq.fu_full::SimdFloatReduceAdd            0      0.00%     17.41% # attempts to use FU when none available
system.cpu1.iq.fu_full::SimdFloatReduceCmp            0      0.00%     17.41% # attempts to use FU when none available
system.cpu1.iq.fu_full::SimdAes                     0      0.00%     17.41% # attempts to use FU when none available
system.cpu1.iq.fu_full::SimdAesMix                  0      0.00%     17.41% # attempts to use FU when none available
system.cpu1.iq.fu_full::SimdSha1Hash                0      0.00%     17.41% # attempts to use FU when none available
system.cpu1.iq.fu_full::SimdSha1Hash2               0      0.00%     17.41% # attempts to use FU when none available
system.cpu1.iq.fu_full::SimdSha256Hash              0      0.00%     17.41% # attempts to use FU when none available
system.cpu1.iq.fu_full::SimdSha256Hash2             0      0.00%     17.41% # attempts to use FU when none available
system.cpu1.iq.fu_full::SimdShaSigma2               0      0.00%     17.41% # attempts to use FU when none available
system.cpu1.iq.fu_full::SimdShaSigma3               0      0.00%     17.41% # attempts to use FU when none available
system.cpu1.iq.fu_full::SimdPredAlu                 0      0.00%     17.41% # attempts to use FU when none available
system.cpu1.iq.fu_full::MemRead                419612     74.32%     91.73% # attempts to use FU when none available
[...]
system.cpu1.dcache.WriteReq_mshr_miss_rate::total     0.043448                       # mshr miss rate for WriteReq accesses
system.cpu1.dcache.WriteReq_avg_mshr_miss_latency::.cpu1.data 54389.837380                       # average WriteReq mshr miss latency
system.cpu1.dcache.WriteReq_avg_mshr_miss_latency::total 54389.837380                       # average WriteReq mshr miss latency
system.cpu1.dcache.LoadLockedReq_hits::.cpu1.data          661                       # number of LoadLockedReq hits
system.cpu1.dcache.LoadLockedReq_hits::total          661                       # number of LoadLockedReq hits
system.cpu1.dcache.LoadLockedReq_misses::.cpu1.data          222                       # number of LoadLockedReq misses
system.cpu1.dcache.LoadLockedReq_misses::total          222                       # number of LoadLockedReq misses
system.cpu1.dcache.LoadLockedReq_miss_latency::.cpu1.data      9415000                       # number of LoadLockedReq miss cycles
system.cpu1.dcache.LoadLockedReq_miss_latency::total      9415000                       # number of LoadLockedReq miss cycles
system.cpu1.dcache.LoadLockedReq_accesses::.cpu1.data          883                       # number of LoadLockedReq accesses(hits+misses)
system.cpu1.dcache.LoadLockedReq_accesses::total          883                       # number of LoadLockedReq accesses(hits+misses)
system.cpu1.dcache.LoadLockedReq_miss_rate::.cpu1.data     0.251416                       # miss rate for LoadLockedReq accesses
system.cpu1.dcache.LoadLockedReq_miss_rate::total     0.251416                       # miss rate for LoadLockedReq accesses
system.cpu1.dcache.LoadLockedReq_avg_miss_latency::.cpu1.data 42409.909910                       # average LoadLockedReq miss latency
system.cpu1.dcache.LoadLockedReq_avg_miss_latency::total 42409.909910                       # average LoadLockedReq miss latency
system.cpu1.dcache.LoadLockedReq_mshr_hits::.cpu1.data          107                       # number of LoadLockedReq MSHR hits
system.cpu1.dcache.LoadLockedReq_mshr_hits::total          107                       # number of LoadLockedReq MSHR hits
system.cpu1.dcache.LoadLockedReq_mshr_misses::.cpu1.data          115                       # number of LoadLockedReq MSHR misses
system.cpu1.dcache.LoadLockedReq_mshr_misses::total          115                       # number of LoadLockedReq MSHR misses
system.cpu1.dcache.LoadLockedReq_mshr_miss_latency::.cpu1.data      1097500                       # number of LoadLockedReq MSHR miss cycles
system.cpu1.dcache.LoadLockedReq_mshr_miss_latency::total      1097500                       # number of LoadLockedReq MSHR miss cycles
system.cpu1.dcache.LoadLockedReq_mshr_miss_rate::.cpu1.data     0.130238                       # mshr miss rate for LoadLockedReq accesses
system.cpu1.dcache.LoadLockedReq_mshr_miss_rate::total     0.130238                       # mshr miss rate for LoadLockedReq accesses
system.cpu1.dcache.LoadLockedReq_avg_mshr_miss_latency::.cpu1.data  9543.478261                       # average LoadLockedReq mshr miss latency
system.cpu1.dcache.LoadLockedReq_avg_mshr_miss_latency::total  9543.478261                       # average LoadLockedReq mshr miss latency
system.cpu1.dcache.StoreCondReq_hits::.cpu1.data          360                       # number of StoreCondReq hits
system.cpu1.dcache.StoreCondReq_hits::total          360                       # number of StoreCondReq hits
system.cpu1.dcache.StoreCondReq_misses::.cpu1.data          285                       # number of StoreCondReq misses
system.cpu1.dcache.StoreCondReq_misses::total          285                       # number of StoreCondReq misses
system.cpu1.dcache.StoreCondReq_miss_latency::.cpu1.data      1342500                       # number of StoreCondReq miss cycles
system.cpu1.dcache.StoreCondReq_miss_latency::total      1342500                       # number of StoreCondReq miss cycles
system.cpu1.dcache.StoreCondReq_accesses::.cpu1.data          645                       # number of StoreCondReq accesses(hits+misses)
system.cpu1.dcache.StoreCondReq_accesses::total          645                       # number of StoreCondReq accesses(hits+misses)
system.cpu1.dcache.StoreCondReq_miss_rate::.cpu1.data     0.441860                       # miss rate for StoreCondReq accesses
system.cpu1.dcache.StoreCondReq_miss_rate::total     0.441860                       # miss rate for StoreCondReq accesses
system.cpu1.dcache.StoreCondReq_avg_miss_latency::.cpu1.data  4710.526316                       # average StoreCondReq miss latency
system.cpu1.dcache.StoreCondReq_avg_miss_latency::total  4710.526316                       # average StoreCondReq miss latency
system.cpu1.dcache.StoreCondReq_mshr_misses::.cpu1.data          281                       # number of StoreCondReq MSHR misses
system.cpu1.dcache.StoreCondReq_mshr_misses::total          281                       # number of StoreCondReq MSHR misses
system.cpu1.dcache.StoreCondReq_mshr_miss_latency::.cpu1.data      1104500                       # number of StoreCondReq MSHR miss cycles
system.cpu1.dcache.StoreCondReq_mshr_miss_latency::total      1104500                       # number of StoreCondReq MSHR miss cycles
system.cpu1.dcache.StoreCondReq_mshr_miss_rate::.cpu1.data     0.435659                       # mshr miss rate for StoreCondReq accesses
system.cpu1.dcache.StoreCondReq_mshr_miss_rate::total     0.435659                       # mshr miss rate for StoreCondReq accesses
system.cpu1.dcache.StoreCondReq_avg_mshr_miss_latency::.cpu1.data  3930.604982                       # average StoreCondReq mshr miss latency
system.cpu1.dcache.StoreCondReq_avg_mshr_miss_latency::total  3930.604982                       # average StoreCondReq mshr miss latency
system.cpu1.dcache.StoreCondFailReq_miss_latency::.cpu1.data       723500                       # number of StoreCondFailReq miss cycles
system.cpu1.dcache.StoreCondFailReq_miss_latency::total       723500                       # number of StoreCondFailReq miss cycles
system.cpu1.dcache.StoreCondFailReq_avg_miss_latency::.cpu1.data          inf                       # average StoreCondFailReq miss latency
system.cpu1.dcache.StoreCondFailReq_avg_miss_latency::total          inf                       # average StoreCondFailReq miss latency
system.cpu1.dcache.StoreCondFailReq_mshr_miss_latency::.cpu1.data       680500                       # number of StoreCondFailReq MSHR miss cycles
system.cpu1.dcache.StoreCondFailReq_mshr_miss_latency::total       680500                       # number of StoreCondFailReq MSHR miss cycles
system.cpu1.dcache.StoreCondFailReq_avg_mshr_miss_latency::.cpu1.data          inf                       # average StoreCondFailReq mshr miss latency
system.cpu1.dcache.StoreCondFailReq_avg_mshr_miss_latency::total          inf                       # average StoreCondFailReq mshr miss latency
system.cpu1.dcache.SwapReq_hits::.cpu1.data          178                       # number of SwapReq hits
system.cpu1.dcache.SwapReq_hits::total            178                       # number of SwapReq hits
system.cpu1.dcache.SwapReq_misses::.cpu1.data          371                       # number of SwapReq misses
system.cpu1.dcache.SwapReq_misses::total          371                       # number of SwapReq misses
system.cpu1.dcache.SwapReq_miss_latency::.cpu1.data      1701000                       # number of SwapReq miss cycles
system.cpu1.dcache.SwapReq_miss_latency::total      1701000                       # number of SwapReq miss cycles
system.cpu1.dcache.SwapReq_accesses::.cpu1.data          549                       # number of SwapReq accesses(hits+misses)
system.cpu1.dcache.SwapReq_accesses::total          549                       # number of SwapReq accesses(hits+misses)
system.cpu1.dcache.SwapReq_miss_rate::.cpu1.data     0.675774                       # miss rate for SwapReq accesses
system.cpu1.dcache.SwapReq_miss_rate::total     0.675774                       # miss rate for SwapReq accesses
system.cpu1.dcache.SwapReq_avg_miss_latency::.cpu1.data  4584.905660                       # average SwapReq miss latency
system.cpu1.dcache.SwapReq_avg_miss_latency::total  4584.905660                       # average SwapReq miss latency
system.cpu1.dcache.SwapReq_mshr_misses::.cpu1.data          371                       # number of SwapReq MSHR misses
system.cpu1.dcache.SwapReq_mshr_misses::total          371                       # number of SwapReq MSHR misses
system.cpu1.dcache.SwapReq_mshr_miss_latency::.cpu1.data      1330000                       # number of SwapReq MSHR miss cycles
system.cpu1.dcache.SwapReq_mshr_miss_latency::total      1330000                       # number of SwapReq MSHR miss cycles
system.cpu1.dcache.SwapReq_mshr_miss_rate::.cpu1.data     0.675774                       # mshr miss rate for SwapReq accesses
system.cpu1.dcache.SwapReq_mshr_miss_rate::total     0.675774                       # mshr miss rate for SwapReq accesses
system.cpu1.dcache.SwapReq_avg_mshr_miss_latency::.cpu1.data  3584.905660                       # average SwapReq mshr miss latency
system.cpu1.dcache.SwapReq_avg_mshr_miss_latency::total  3584.905660                       # average SwapReq mshr miss latency
system.cpu1.dcache.tags.pwrStateResidencyTicks::UNDEFINED 11907178877000                       # Cumulative time (in ticks) in various power states
system.cpu1.dcache.tags.tagsinuse           26.074644                       # Cycle average of tags in use
system.cpu1.dcache.tags.total_refs           12312047                       # Total number of references to valid blocks.
system.cpu1.dcache.tags.sampled_refs          1557416                       # Sample count of references to valid blocks.
system.cpu1.dcache.tags.avg_refs             7.905432                       # Average number of references to valid blocks.
system.cpu1.dcache.tags.warmup_cycle                0                       # Cycle when the warmup percentage was hit.
system.cpu1.dcache.tags.occ_blocks::.cpu1.data    26.074644                       # Average occupied blocks per requestor
system.cpu1.dcache.tags.occ_percent::.cpu1.data     0.814833                       # Average percentage of cache occupancy
system.cpu1.dcache.tags.occ_percent::total     0.814833                       # Average percentage of cache occupancy
system.cpu1.dcache.tags.occ_task_id_blocks::1024           26                       # Occupied blocks per task id
system.cpu1.dcache.tags.age_task_id_blocks_1024::4           26                       # Occupied blocks per task id
system.cpu1.dcache.tags.occ_task_id_percent::1024     0.812500                       # Percentage of cache occupancy per task id
system.cpu1.dcache.tags.tag_accesses         29081946                       # Number of tag accesses
system.cpu1.dcache.tags.data_accesses        29081946                       # Number of data accesses
system.cpu_clk_domain.clock                       500                       # Clock period in ticks
system.tol2bus.pwrStateResidencyTicks::UNDEFINED 11907178877000                       # Cumulative time (in ticks) in various power states
system.tol2bus.trans_dist::ReadResp          12900660                       # Transaction distribution
system.tol2bus.trans_dist::ReadRespWithInvalidate            2                       # Transaction distribution
system.tol2bus.trans_dist::WritebackDirty      1055412                       # Transaction distribution
system.tol2bus.trans_dist::WritebackClean     12406060                       # Transaction distribution
system.tol2bus.trans_dist::CleanEvict        29514237                       # Transaction distribution
system.tol2bus.trans_dist::HardPFReq         16578730                       # Transaction distribution
system.tol2bus.trans_dist::HardPFResp               1                       # Transaction distribution
system.tol2bus.trans_dist::UpgradeReq           13906                       # Transaction distribution
system.tol2bus.trans_dist::SCUpgradeReq          1178                       # Transaction distribution
system.tol2bus.trans_dist::UpgradeResp          15084                       # Transaction distribution
system.tol2bus.trans_dist::SCUpgradeFailReq          111                       # Transaction distribution
system.tol2bus.trans_dist::UpgradeFailResp          111                       # Transaction distribution
system.tol2bus.trans_dist::ReadExReq            79774                       # Transaction distribution
system.tol2bus.trans_dist::ReadExResp           79774                       # Transaction distribution
system.tol2bus.trans_dist::ReadCleanReq         22035                       # Transaction distribution
system.tol2bus.trans_dist::ReadSharedReq     12878626                       # Transaction distribution
system.tol2bus.trans_dist::InvalidateReq          214                       # Transaction distribution
system.tol2bus.trans_dist::InvalidateResp          214                       # Transaction distribution
system.tol2bus.pkt_count_system.cpu0.icache.mem_side::system.l2.cpu_side        40955                       # Packet count per connected master and slave (bytes)
system.tol2bus.pkt_count_system.cpu0.dcache.mem_side::system.l2.cpu_side     30933941                       # Packet count per connected master and slave (bytes)
system.tol2bus.pkt_count_system.cpu1.icache.mem_side::system.l2.cpu_side         8403                       # Packet count per connected master and slave (bytes)
system.tol2bus.pkt_count_system.cpu1.dcache.mem_side::system.l2.cpu_side      4682690                       # Packet count per connected master and slave (bytes)
system.tol2bus.pkt_count_system.cpu2.icache.mem_side::system.l2.cpu_side         8760                       # Packet count per connected master and slave (bytes)
system.tol2bus.pkt_count_system.cpu2.dcache.mem_side::system.l2.cpu_side      1748989                       # Packet count per connected master and slave (bytes)
system.tol2bus.pkt_count_system.cpu3.icache.mem_side::system.l2.cpu_side         7989                       # Packet count per connected master and slave (bytes)
system.tol2bus.pkt_count_system.cpu3.dcache.mem_side::system.l2.cpu_side      1500783                       # Packet count per connected master and slave (bytes)
system.tol2bus.pkt_count::total              38932510                       # Packet count per connected master and slave (bytes)
system.tol2bus.pkt_size_system.cpu0.icache.mem_side::system.l2.cpu_side      1747456                       # Cumulative packet size per connected master and slave (bytes)
system.tol2bus.pkt_size_system.cpu0.dcache.mem_side::system.l2.cpu_side   1319488512                       # Cumulative packet size per connected master and slave (bytes)
system.tol2bus.pkt_size_system.cpu1.icache.mem_side::system.l2.cpu_side       358528                       # Cumulative packet size per connected master and slave (bytes)
system.tol2bus.pkt_size_system.cpu1.dcache.mem_side::system.l2.cpu_side    198898944                       # Cumulative packet size per connected master and slave (bytes)
system.tol2bus.pkt_size_system.cpu2.icache.mem_side::system.l2.cpu_side       373760                       # Cumulative packet size per connected master and slave (bytes)
system.tol2bus.pkt_size_system.cpu2.dcache.mem_side::system.l2.cpu_side     74393920                       # Cumulative packet size per connected master and slave (bytes)
system.tol2bus.pkt_size_system.cpu3.icache.mem_side::system.l2.cpu_side       340864                       # Cumulative packet size per connected master and slave (bytes)
system.tol2bus.pkt_size_system.cpu3.dcache.mem_side::system.l2.cpu_side     63607488                       # Cumulative packet size per connected master and slave (bytes)
system.tol2bus.pkt_size::total             1659209472                       # Cumulative packet size per connected master and slave (bytes)
system.tol2bus.snoops                        46613620                       # Total snoops (count)
system.tol2bus.snoopTraffic                  33079872                       # Total snoop traffic (bytes)
system.tol2bus.snoop_fanout::samples         59737001                       # Request fanout histogram
system.tol2bus.snoop_fanout::mean            0.201540                       # Request fanout histogram
system.tol2bus.snoop_fanout::stdev           0.473430                       # Request fanout histogram
system.tol2bus.snoop_fanout::underflows             0      0.00%      0.00% # Request fanout histogram
system.tol2bus.snoop_fanout::0               49034730     82.08%     82.08% # Request fanout histogram
system.tol2bus.snoop_fanout::1                9814707     16.43%     98.51% # Request fanout histogram
system.tol2bus.snoop_fanout::2                 539480      0.90%     99.42% # Request fanout histogram
system.tol2bus.snoop_fanout::3                 246619      0.41%     99.83% # Request fanout histogram
system.tol2bus.snoop_fanout::4                 101465      0.17%    100.00% # Request fanout histogram
system.tol2bus.snoop_fanout::5                      0      0.00%    100.00% # Request fanout histogram
system.tol2bus.snoop_fanout::6                      0      0.00%    100.00% # Request fanout histogram
system.tol2bus.snoop_fanout::7                      0      0.00%    100.00% # Request fanout histogram
system.tol2bus.snoop_fanout::8                      0      0.00%    100.00% # Request fanout histogram
system.tol2bus.snoop_fanout::overflows              0      0.00%    100.00% # Request fanout histogram
system.tol2bus.snoop_fanout::min_value              0                       # Request fanout histogram
system.tol2bus.snoop_fanout::max_value              4                       # Request fanout histogram
system.tol2bus.snoop_fanout::total           59737001                       # Request fanout histogram
system.tol2bus.reqLayer0.occupancy        26226795902                       # Layer occupancy (ticks)
system.tol2bus.reqLayer0.utilization              0.2                       # Layer utilization (%)
system.tol2bus.respLayer5.occupancy         879417347                       # Layer occupancy (ticks)
system.tol2bus.respLayer5.utilization             0.0                       # Layer utilization (%)
system.tol2bus.respLayer4.occupancy           4575031                       # Layer occupancy (ticks)
system.tol2bus.respLayer4.utilization             0.0                       # Layer utilization (%)
system.tol2bus.respLayer7.occupancy         761091499                       # Layer occupancy (ticks)
system.tol2bus.respLayer7.utilization             0.0                       # Layer utilization (%)
system.tol2bus.respLayer6.occupancy           4123181                       # Layer occupancy (ticks)
system.tol2bus.respLayer6.utilization             0.0                       # Layer utilization (%)
system.tol2bus.respLayer1.occupancy       15475359169                       # Layer occupancy (ticks)
system.tol2bus.respLayer1.utilization             0.1                       # Layer utilization (%)
system.tol2bus.respLayer0.occupancy          20521402                       # Layer occupancy (ticks)
system.tol2bus.respLayer0.utilization             0.0                       # Layer utilization (%)
system.tol2bus.respLayer3.occupancy        2346581047                       # Layer occupancy (ticks)
system.tol2bus.respLayer3.utilization             0.0                       # Layer utilization (%)
system.tol2bus.respLayer2.occupancy           4379546                       # Layer occupancy (ticks)
system.tol2bus.respLayer2.utilization             0.0                       # Layer utilization (%)
system.tol2bus.snoopLayer0.occupancy             1500                       # Layer occupancy (ticks)
system.tol2bus.snoopLayer0.utilization            0.0                       # Layer utilization (%)

---------- End Simulation Statistics   ----------
