
---------- Begin Simulation Statistics ----------
final_tick                               591598550000                       # Number of ticks from beginning of simulation (restored from checkpoints and never reset)
host_inst_rate                                  85063                       # Simulator instruction rate (inst/s)
host_mem_usage                                 701460                       # Number of bytes of host memory used
host_op_rate                                    85346                       # Simulator op (including micro ops) rate (op/s)
host_seconds                                  7201.19                       # Real time elapsed on the host
host_tick_rate                               82152905                       # Simulator tick rate (ticks/s)
sim_freq                                 1000000000000                       # Frequency of simulated ticks
sim_insts                                   612554652                       # Number of instructions simulated
sim_ops                                     614592237                       # Number of ops (including micro ops) simulated
sim_seconds                                  0.591599                       # Number of seconds simulated
sim_ticks                                591598550000                       # Number of ticks simulated
system.cpu0.branchPred.BTBCorrect                   0                       # Number of correct BTB predictions (this stat may not work properly.
system.cpu0.branchPred.BTBHitPct            87.454467                       # BTB Hit Percentage
system.cpu0.branchPred.BTBHits               80155187                       # Number of BTB hits
system.cpu0.branchPred.BTBLookups            91653622                       # Number of BTB lookups
system.cpu0.branchPred.RASInCorrect                 0                       # Number of incorrect RAS predictions.
system.cpu0.branchPred.condIncorrect          8643828                       # Number of conditional branches incorrect
system.cpu0.branchPred.condPredicted        126204673                       # Number of conditional branches predicted
system.cpu0.branchPred.indirectHits          10552056                       # Number of indirect target hits.
system.cpu0.branchPred.indirectLookups       10734735                       # Number of indirect predictor lookups.
system.cpu0.branchPred.indirectMisses          182679                       # Number of indirect misses.
system.cpu0.branchPred.lookups              160605734                       # Number of BP lookups
system.cpu0.branchPred.usedRAS                      0                       # Number of times the RAS was used to get a target.
system.cpu0.branchPredindirectMispredicted      1063810                       # Number of mispredicted indirect branches.
system.cpu0.commit.amos                       1018200                       # Number of atomic instructions committed
system.cpu0.commit.branchMispredicts          5741993                       # The number of times a branch was mispredicted
system.cpu0.commit.branches                 143207952                       # Number of branches committed
system.cpu0.commit.bw_lim_events             15672781                       # number cycles where commit BW limit reached
system.cpu0.commit.commitNonSpecStalls        3058472                       # The number of times commit has been forced to stall to communicate backwards
system.cpu0.commit.commitSquashedInsts       52513813                       # The number of squashed insts skipped by commit
system.cpu0.commit.committedInsts           580290105                       # Number of instructions committed
system.cpu0.commit.committedOps             581309587                       # Number of ops (including micro ops) committed
system.cpu0.commit.committed_per_cycle::samples   1084483474                       # Number of insts commited each cycle
system.cpu0.commit.committed_per_cycle::mean     0.536024                       # Number of insts commited each cycle
system.cpu0.commit.committed_per_cycle::stdev     1.289875                       # Number of insts commited each cycle
system.cpu0.commit.committed_per_cycle::underflows            0      0.00%      0.00% # Number of insts commited each cycle
system.cpu0.commit.committed_per_cycle::0    801361551     73.89%     73.89% # Number of insts commited each cycle
system.cpu0.commit.committed_per_cycle::1    166110379     15.32%     89.21% # Number of insts commited each cycle
system.cpu0.commit.committed_per_cycle::2     44494770      4.10%     93.31% # Number of insts commited each cycle
system.cpu0.commit.committed_per_cycle::3     40233543      3.71%     97.02% # Number of insts commited each cycle
system.cpu0.commit.committed_per_cycle::4      9501467      0.88%     97.90% # Number of insts commited each cycle
system.cpu0.commit.committed_per_cycle::5      2833876      0.26%     98.16% # Number of insts commited each cycle
system.cpu0.commit.committed_per_cycle::6      1974206      0.18%     98.34% # Number of insts commited each cycle
system.cpu0.commit.committed_per_cycle::7      2300901      0.21%     98.55% # Number of insts commited each cycle
system.cpu0.commit.committed_per_cycle::8     15672781      1.45%    100.00% # Number of insts commited each cycle
system.cpu0.commit.committed_per_cycle::overflows            0      0.00%    100.00% # Number of insts commited each cycle
system.cpu0.commit.committed_per_cycle::min_value            0                       # Number of insts commited each cycle
system.cpu0.commit.committed_per_cycle::max_value            8                       # Number of insts commited each cycle
system.cpu0.commit.committed_per_cycle::total   1084483474                       # Number of insts commited each cycle
system.cpu0.commit.fp_insts                        50                       # Number of committed floating point instructions.
system.cpu0.commit.function_calls            11887197                       # Number of function calls committed.
system.cpu0.commit.int_insts                561284666                       # Number of committed integer instructions.
system.cpu0.commit.loads                    179950837                       # Number of loads committed
system.cpu0.commit.membars                    2037577                       # Number of memory barriers committed
system.cpu0.commit.op_class_0::No_OpClass      2037583      0.35%      0.35% # Class of committed instruction
system.cpu0.commit.op_class_0::IntAlu       322232756     55.43%     55.78% # Class of committed instruction
system.cpu0.commit.op_class_0::IntMult        4135822      0.71%     56.49% # Class of committed instruction
system.cpu0.commit.op_class_0::IntDiv         1017773      0.18%     56.67% # Class of committed instruction
system.cpu0.commit.op_class_0::FloatAdd             0      0.00%     56.67% # Class of committed instruction
system.cpu0.commit.op_class_0::FloatCmp             4      0.00%     56.67% # Class of committed instruction
system.cpu0.commit.op_class_0::FloatCvt            12      0.00%     56.67% # Class of committed instruction
system.cpu0.commit.op_class_0::FloatMult            0      0.00%     56.67% # Class of committed instruction
system.cpu0.commit.op_class_0::FloatMultAcc            0      0.00%     56.67% # Class of committed instruction
system.cpu0.commit.op_class_0::FloatDiv             2      0.00%     56.67% # Class of committed instruction
system.cpu0.commit.op_class_0::FloatMisc            4      0.00%     56.67% # Class of committed instruction
system.cpu0.commit.op_class_0::FloatSqrt            0      0.00%     56.67% # Class of committed instruction
system.cpu0.commit.op_class_0::SimdAdd              0      0.00%     56.67% # Class of committed instruction
system.cpu0.commit.op_class_0::SimdAddAcc            0      0.00%     56.67% # Class of committed instruction
system.cpu0.commit.op_class_0::SimdAlu              0      0.00%     56.67% # Class of committed instruction
system.cpu0.commit.op_class_0::SimdCmp              0      0.00%     56.67% # Class of committed instruction
system.cpu0.commit.op_class_0::SimdCvt              0      0.00%     56.67% # Class of committed instruction
system.cpu0.commit.op_class_0::SimdMisc             0      0.00%     56.67% # Class of committed instruction
system.cpu0.commit.op_class_0::SimdMult             0      0.00%     56.67% # Class of committed instruction
system.cpu0.commit.op_class_0::SimdMultAcc            0      0.00%     56.67% # Class of committed instruction
system.cpu0.commit.op_class_0::SimdShift            0      0.00%     56.67% # Class of committed instruction
system.cpu0.commit.op_class_0::SimdShiftAcc            0      0.00%     56.67% # Class of committed instruction
system.cpu0.commit.op_class_0::SimdDiv              0      0.00%     56.67% # Class of committed instruction
system.cpu0.commit.op_class_0::SimdSqrt             0      0.00%     56.67% # Class of committed instruction
system.cpu0.commit.op_class_0::SimdFloatAdd            0      0.00%     56.67% # Class of committed instruction
system.cpu0.commit.op_class_0::SimdFloatAlu            0      0.00%     56.67% # Class of committed instruction
system.cpu0.commit.op_class_0::SimdFloatCmp            0      0.00%     56.67% # Class of committed instruction
system.cpu0.commit.op_class_0::SimdFloatCvt            0      0.00%     56.67% # Class of committed instruction
system.cpu0.commit.op_class_0::SimdFloatDiv            0      0.00%     56.67% # Class of committed instruction
system.cpu0.commit.op_class_0::SimdFloatMisc            0      0.00%     56.67% # Class of committed instruction
system.cpu0.commit.op_class_0::SimdFloatMult            0      0.00%     56.67% # Class of committed instruction
system.cpu0.commit.op_class_0::SimdFloatMultAcc            0      0.00%     56.67% # Class of committed instruction
system.cpu0.commit.op_class_0::SimdFloatSqrt            0      0.00%     56.67% # Class of committed instruction
system.cpu0.commit.op_class_0::SimdReduceAdd            0      0.00%     56.67% # Class of committed instruction
system.cpu0.commit.op_class_0::SimdReduceAlu            0      0.00%     56.67% # Class of committed instruction
system.cpu0.commit.op_class_0::SimdReduceCmp            0      0.00%     56.67% # Class of committed instruction
system.cpu0.commit.op_class_0::SimdFloatReduceAdd            0      0.00%     56.67% # Class of committed instruction
system.cpu0.commit.op_class_0::SimdFloatReduceCmp            0      0.00%     56.67% # Class of committed instruction
system.cpu0.commit.op_class_0::SimdAes              0      0.00%     56.67% # Class of committed instruction
system.cpu0.commit.op_class_0::SimdAesMix            0      0.00%     56.67% # Class of committed instruction
system.cpu0.commit.op_class_0::SimdSha1Hash            0      0.00%     56.67% # Class of committed instruction
system.cpu0.commit.op_class_0::SimdSha1Hash2            0      0.00%     56.67% # Class of committed instruction
system.cpu0.commit.op_class_0::SimdSha256Hash            0      0.00%     56.67% # Class of committed instruction
system.cpu0.commit.op_class_0::SimdSha256Hash2            0      0.00%     56.67% # Class of committed instruction
system.cpu0.commit.op_class_0::SimdShaSigma2            0      0.00%     56.67% # Class of committed instruction
system.cpu0.commit.op_class_0::SimdShaSigma3            0      0.00%     56.67% # Class of committed instruction
system.cpu0.commit.op_class_0::SimdPredAlu            0      0.00%     56.67% # Class of committed instruction
system.cpu0.commit.op_class_0::MemRead      180969029     31.13%     87.80% # Class of committed instruction
system.cpu0.commit.op_class_0::MemWrite      70916574     12.20%    100.00% # Class of committed instruction
system.cpu0.commit.op_class_0::FloatMemRead            8      0.00%    100.00% # Class of committed instruction
system.cpu0.commit.op_class_0::FloatMemWrite           20      0.00%    100.00% # Class of committed instruction
system.cpu0.commit.op_class_0::IprAccess            0      0.00%    100.00% # Class of committed instruction
system.cpu0.commit.op_class_0::InstPrefetch            0      0.00%    100.00% # Class of committed instruction
system.cpu0.commit.op_class_0::total        581309587                       # Class of committed instruction
system.cpu0.commit.refs                     251885631                       # Number of memory references committed
system.cpu0.commit.swp_count                        0                       # Number of s/w prefetches committed
system.cpu0.commit.vec_insts                        0                       # Number of committed Vector instructions.
system.cpu0.committedInsts                  580290105                       # Number of Instructions Simulated
system.cpu0.committedOps                    581309587                       # Number of Ops (including micro ops) Simulated
system.cpu0.cpi                              2.019187                       # CPI: Cycles Per Instruction
system.cpu0.cpi_total                        2.019187                       # CPI: Total CPI of All Threads
system.cpu0.decode.BlockedCycles            178822572                       # Number of cycles decode is blocked
system.cpu0.decode.BranchMispred              2914960                       # Number of times decode detected a branch misprediction
system.cpu0.decode.BranchResolved            79118587                       # Number of times decode resolved a branch
system.cpu0.decode.DecodedInsts             650252684                       # Number of instructions handled by decode
system.cpu0.decode.IdleCycles               468639337                       # Number of cycles decode is idle
system.cpu0.decode.RunCycles                437574761                       # Number of cycles decode is running
system.cpu0.decode.SquashCycles               5750024                       # Number of cycles decode is squashing
system.cpu0.decode.SquashedInsts              8385837                       # Number of squashed instructions handled by decode
system.cpu0.decode.UnblockCycles              3623383                       # Number of cycles decode is unblocking
system.cpu0.dtb.accesses                            0                       # DTB accesses
system.cpu0.dtb.hits                                0                       # DTB hits
system.cpu0.dtb.misses                              0                       # DTB misses
system.cpu0.dtb.read_accesses                       0                       # DTB read accesses
system.cpu0.dtb.read_hits                           0                       # DTB read hits
system.cpu0.dtb.read_misses                         0                       # DTB read misses
system.cpu0.dtb.write_accesses                      0                       # DTB write accesses
system.cpu0.dtb.write_hits                          0                       # DTB write hits
system.cpu0.dtb.write_misses                        0                       # DTB write misses
system.cpu0.fetch.Branches                  160605734                       # Number of branches that fetch encountered
system.cpu0.fetch.CacheLines                116953308                       # Number of cache lines fetched
system.cpu0.fetch.Cycles                    628348192                       # Number of cycles fetch has run and was not squashing or blocked
system.cpu0.fetch.IcacheSquashes              2319959                       # Number of outstanding Icache misses that were squashed
system.cpu0.fetch.IcacheWaitRetryStallCycles           53                       # Number of stall cycles due to full MSHR
system.cpu0.fetch.Insts                     670658162                       # Number of instructions fetch has processed
system.cpu0.fetch.MiscStallCycles                  63                       # Number of cycles fetch has spent waiting on interrupts, or bad addresses, or out of MSHRs
system.cpu0.fetch.PendingTrapStallCycles          341                       # Number of stall cycles due to pending traps
system.cpu0.fetch.SquashCycles               17303822                       # Number of cycles fetch has spent squashing
system.cpu0.fetch.branchRate                 0.137069                       # Number of branch fetches per cycle
system.cpu0.fetch.icacheStallCycles         457409517                       # Number of cycles fetch is stalled on an Icache miss
system.cpu0.fetch.predictedBranches          90707243                       # Number of branches that fetch has predicted taken
system.cpu0.fetch.rate                       0.572374                       # Number of inst fetches per cycle
system.cpu0.fetch.rateDist::samples        1094410077                       # Number of instructions fetched each cycle (Total)
system.cpu0.fetch.rateDist::mean             0.615331                       # Number of instructions fetched each cycle (Total)
system.cpu0.fetch.rateDist::stdev            0.918706                       # Number of instructions fetched each cycle (Total)
system.cpu0.fetch.rateDist::underflows              0      0.00%      0.00% # Number of instructions fetched each cycle (Total)
system.cpu0.fetch.rateDist::0               628643408     57.44%     57.44% # Number of instructions fetched each cycle (Total)
system.cpu0.fetch.rateDist::1               341493290     31.20%     88.64% # Number of instructions fetched each cycle (Total)
system.cpu0.fetch.rateDist::2                65313683      5.97%     94.61% # Number of instructions fetched each cycle (Total)
system.cpu0.fetch.rateDist::3                44938404      4.11%     98.72% # Number of instructions fetched each cycle (Total)
system.cpu0.fetch.rateDist::4                 8024906      0.73%     99.45% # Number of instructions fetched each cycle (Total)
system.cpu0.fetch.rateDist::5                 3639945      0.33%     99.78% # Number of instructions fetched each cycle (Total)
system.cpu0.fetch.rateDist::6                  310480      0.03%     99.81% # Number of instructions fetched each cycle (Total)
system.cpu0.fetch.rateDist::7                 2041765      0.19%    100.00% # Number of instructions fetched each cycle (Total)
system.cpu0.fetch.rateDist::8                    4196      0.00%    100.00% # Number of instructions fetched each cycle (Total)
system.cpu0.fetch.rateDist::overflows               0      0.00%    100.00% # Number of instructions fetched each cycle (Total)
system.cpu0.fetch.rateDist::min_value               0                       # Number of instructions fetched each cycle (Total)
system.cpu0.fetch.rateDist::max_value               8                       # Number of instructions fetched each cycle (Total)
system.cpu0.fetch.rateDist::total          1094410077                       # Number of instructions fetched each cycle (Total)
system.cpu0.fp_regfile_reads                       44                       # number of floating regfile reads
system.cpu0.fp_regfile_writes                      22                       # number of floating regfile writes
system.cpu0.idleCycles                       77304128                       # Total number of cycles that the CPU has spent unscheduled due to idling
system.cpu0.iew.branchMispredicts             5814065                       # Number of branch mispredicts detected at execute
system.cpu0.iew.exec_branches               148944047                       # Number of branches executed
system.cpu0.iew.exec_nop                            0                       # number of nop insts executed
system.cpu0.iew.exec_rate                    0.520326                       # Inst execution rate
system.cpu0.iew.exec_refs                   265978813                       # number of memory reference insts executed
system.cpu0.iew.exec_stores                  74781104                       # Number of stores executed
system.cpu0.iew.exec_swp                            0                       # number of swp insts executed
system.cpu0.iew.iewBlockCycles              136846794                       # Number of cycles IEW is blocking
system.cpu0.iew.iewDispLoadInsts            198607857                       # Number of dispatched load instructions
system.cpu0.iew.iewDispNonSpecInsts           2026645                       # Number of dispatched non-speculative instructions
system.cpu0.iew.iewDispSquashedInsts          2851958                       # Number of squashed instructions skipped by dispatch
system.cpu0.iew.iewDispStoreInsts            77644098                       # Number of dispatched store instructions
system.cpu0.iew.iewDispatchedInsts          633804423                       # Number of instructions dispatched to IQ
system.cpu0.iew.iewExecLoadInsts            191197709                       # Number of load instructions executed
system.cpu0.iew.iewExecSquashedInsts          4980538                       # Number of squashed instructions skipped in execute
system.cpu0.iew.iewExecutedInsts            609673663                       # Number of executed instructions
system.cpu0.iew.iewIQFullEvents               1066556                       # Number of times the IQ has become full, causing a stall
system.cpu0.iew.iewIdleCycles                       0                       # Number of cycles IEW is idle
system.cpu0.iew.iewLSQFullEvents              5769821                       # Number of times the LSQ has become full, causing a stall
system.cpu0.iew.iewSquashCycles               5750024                       # Number of cycles IEW is squashing
system.cpu0.iew.iewUnblockCycles              7864420                       # Number of cycles IEW is unblocking
system.cpu0.iew.lsq.thread0.blockedLoads            0                       # Number of blocked loads due to partial load-store forwarding
system.cpu0.iew.lsq.thread0.cacheBlocked       109725                       # Number of times an access to memory failed due to the cache being blocked
system.cpu0.iew.lsq.thread0.forwLoads         8732302                       # Number of loads that had data forwarded from stores
system.cpu0.iew.lsq.thread0.ignoredResponses        29098                       # Number of memory responses ignored because the instruction is squashed
system.cpu0.iew.lsq.thread0.invAddrLoads            0                       # Number of loads ignored due to an invalid address
system.cpu0.iew.lsq.thread0.invAddrSwpfs            0                       # Number of software prefetches ignored due to an invalid address
system.cpu0.iew.lsq.thread0.memOrderViolation         8572                       # Number of memory ordering violations
system.cpu0.iew.lsq.thread0.rescheduledLoads      2409396                       # Number of loads that were rescheduled
system.cpu0.iew.lsq.thread0.squashedLoads     18657020                       # Number of loads squashed
system.cpu0.iew.lsq.thread0.squashedStores      5709304                       # Number of stores squashed
system.cpu0.iew.memOrderViolationEvents          8572                       # Number of memory order violations
system.cpu0.iew.predictedNotTakenIncorrect       865447                       # Number of branches that were predicted not taken incorrectly
system.cpu0.iew.predictedTakenIncorrect       4948618                       # Number of branches that were predicted taken incorrectly
system.cpu0.iew.wb_consumers                258669207                       # num instructions consuming a value
system.cpu0.iew.wb_count                    604345202                       # cumulative count of insts written-back
system.cpu0.iew.wb_fanout                    0.873145                       # average fanout of values written-back
system.cpu0.iew.wb_producers                225855638                       # num instructions producing a value
system.cpu0.iew.wb_rate                      0.515779                       # insts written-back per cycle
system.cpu0.iew.wb_sent                     604414480                       # cumulative count of insts sent to commit
system.cpu0.int_regfile_reads               745156898                       # number of integer regfile reads
system.cpu0.int_regfile_writes              385226811                       # number of integer regfile writes
system.cpu0.ipc                              0.495249                       # IPC: Instructions Per Cycle
system.cpu0.ipc_total                        0.495249                       # IPC: Total IPC of All Threads
system.cpu0.iq.FU_type_0::No_OpClass          2038506      0.33%      0.33% # Type of FU issued
system.cpu0.iq.FU_type_0::IntAlu            339193501     55.18%     55.52% # Type of FU issued
system.cpu0.iq.FU_type_0::IntMult             4140953      0.67%     56.19% # Type of FU issued
system.cpu0.iq.FU_type_0::IntDiv              1018099      0.17%     56.36% # Type of FU issued
system.cpu0.iq.FU_type_0::FloatAdd                  0      0.00%     56.36% # Type of FU issued
system.cpu0.iq.FU_type_0::FloatCmp                  4      0.00%     56.36% # Type of FU issued
system.cpu0.iq.FU_type_0::FloatCvt                 12      0.00%     56.36% # Type of FU issued
system.cpu0.iq.FU_type_0::FloatMult                 0      0.00%     56.36% # Type of FU issued
system.cpu0.iq.FU_type_0::FloatMultAcc              0      0.00%     56.36% # Type of FU issued
system.cpu0.iq.FU_type_0::FloatDiv                  2      0.00%     56.36% # Type of FU issued
system.cpu0.iq.FU_type_0::FloatMisc                 4      0.00%     56.36% # Type of FU issued
system.cpu0.iq.FU_type_0::FloatSqrt                 0      0.00%     56.36% # Type of FU issued
system.cpu0.iq.FU_type_0::SimdAdd                   0      0.00%     56.36% # Type of FU issued
system.cpu0.iq.FU_type_0::SimdAddAcc                0      0.00%     56.36% # Type of FU issued
system.cpu0.iq.FU_type_0::SimdAlu                   0      0.00%     56.36% # Type of FU issued
system.cpu0.iq.FU_type_0::SimdCmp                   0      0.00%     56.36% # Type of FU issued
system.cpu0.iq.FU_type_0::SimdCvt                   0      0.00%     56.36% # Type of FU issued
system.cpu0.iq.FU_type_0::SimdMisc                  0      0.00%     56.36% # Type of FU issued
system.cpu0.iq.FU_type_0::SimdMult                  0      0.00%     56.36% # Type of FU issued
system.cpu0.iq.FU_type_0::SimdMultAcc               0      0.00%     56.36% # Type of FU issued
system.cpu0.iq.FU_type_0::SimdShift                 0      0.00%     56.36% # Type of FU issued
system.cpu0.iq.FU_type_0::SimdShiftAcc              0      0.00%     56.36% # Type of FU issued
system.cpu0.iq.FU_type_0::SimdDiv                   0      0.00%     56.36% # Type of FU issued
system.cpu0.iq.FU_type_0::SimdSqrt                  0      0.00%     56.36% # Type of FU issued
system.cpu0.iq.FU_type_0::SimdFloatAdd              0      0.00%     56.36% # Type of FU issued
system.cpu0.iq.FU_type_0::SimdFloatAlu              0      0.00%     56.36% # Type of FU issued
system.cpu0.iq.FU_type_0::SimdFloatCmp              0      0.00%     56.36% # Type of FU issued
system.cpu0.iq.FU_type_0::SimdFloatCvt              0      0.00%     56.36% # Type of FU issued
system.cpu0.iq.FU_type_0::SimdFloatDiv              0      0.00%     56.36% # Type of FU issued
system.cpu0.iq.FU_type_0::SimdFloatMisc             0      0.00%     56.36% # Type of FU issued
system.cpu0.iq.FU_type_0::SimdFloatMult             0      0.00%     56.36% # Type of FU issued
system.cpu0.iq.FU_type_0::SimdFloatMultAcc            0      0.00%     56.36% # Type of FU issued
system.cpu0.iq.FU_type_0::SimdFloatSqrt             0      0.00%     56.36% # Type of FU issued
system.cpu0.iq.FU_type_0::SimdReduceAdd             0      0.00%     56.36% # Type of FU issued
system.cpu0.iq.FU_type_0::SimdReduceAlu             0      0.00%     56.36% # Type of FU issued
system.cpu0.iq.FU_type_0::SimdReduceCmp             0      0.00%     56.36% # Type of FU issued
system.cpu0.iq.FU_type_0::SimdFloatReduceAdd            0      0.00%     56.36% # Type of FU issued
system.cpu0.iq.FU_type_0::SimdFloatReduceCmp            0      0.00%     56.36% # Type of FU issued
system.cpu0.iq.FU_type_0::SimdAes                   0      0.00%     56.36% # Type of FU issued
system.cpu0.iq.FU_type_0::SimdAesMix                0      0.00%     56.36% # Type of FU issued
system.cpu0.iq.FU_type_0::SimdSha1Hash              0      0.00%     56.36% # Type of FU issued
system.cpu0.iq.FU_type_0::SimdSha1Hash2             0      0.00%     56.36% # Type of FU issued
system.cpu0.iq.FU_type_0::SimdSha256Hash            0      0.00%     56.36% # Type of FU issued
system.cpu0.iq.FU_type_0::SimdSha256Hash2            0      0.00%     56.36% # Type of FU issued
system.cpu0.iq.FU_type_0::SimdShaSigma2             0      0.00%     56.36% # Type of FU issued
system.cpu0.iq.FU_type_0::SimdShaSigma3             0      0.00%     56.36% # Type of FU issued
system.cpu0.iq.FU_type_0::SimdPredAlu               0      0.00%     56.36% # Type of FU issued
system.cpu0.iq.FU_type_0::MemRead           194303584     31.61%     87.97% # Type of FU issued
system.cpu0.iq.FU_type_0::MemWrite           73959508     12.03%    100.00% # Type of FU issued
system.cpu0.iq.FU_type_0::FloatMemRead              9      0.00%    100.00% # Type of FU issued
system.cpu0.iq.FU_type_0::FloatMemWrite            20      0.00%    100.00% # Type of FU issued
system.cpu0.iq.FU_type_0::IprAccess                 0      0.00%    100.00% # Type of FU issued
system.cpu0.iq.FU_type_0::InstPrefetch              0      0.00%    100.00% # Type of FU issued
system.cpu0.iq.FU_type_0::total             614654202                       # Type of FU issued
system.cpu0.iq.fp_alu_accesses                     53                       # Number of floating point alu accesses
system.cpu0.iq.fp_inst_queue_reads                104                       # Number of floating instruction queue reads
system.cpu0.iq.fp_inst_queue_wakeup_accesses           50                       # Number of floating instruction queue wakeup accesses
system.cpu0.iq.fp_inst_queue_writes                54                       # Number of floating instruction queue writes
system.cpu0.iq.fu_busy_cnt                    1575187                       # FU busy when requested
system.cpu0.iq.fu_busy_rate                  0.002563                       # FU busy rate (busy events/executed inst)
system.cpu0.iq.fu_full::No_OpClass                  0      0.00%      0.00% # attempts to use FU when none available
system.cpu0.iq.fu_full::IntAlu                 282289     17.92%     17.92% # attempts to use FU when none available
system.cpu0.iq.fu_full::IntMult                     0      0.00%     17.92% # attempts to use FU when none available
system.cpu0.iq.fu_full::IntDiv                      0      0.00%     17.92% # attempts to use FU when none available
system.cpu0.iq.fu_full::FloatAdd                    0      0.00%     17.92% # attempts to use FU when none available
system.cpu0.iq.fu_full::FloatCmp                    0      0.00%     17.92% # attempts to use FU when none available
system.cpu0.iq.fu_full::FloatCvt                    0      0.00%     17.92% # attempts to use FU when none available
system.cpu0.iq.fu_full::FloatMult                   0      0.00%     17.92% # attempts to use FU when none available
system.cpu0.iq.fu_full::FloatMultAcc                0      0.00%     17.92% # attempts to use FU when none available
system.cpu0.iq.fu_full::FloatDiv                    0      0.00%     17.92% # attempts to use FU when none available
system.cpu0.iq.fu_full::FloatMisc                   0      0.00%     17.92% # attempts to use FU when none available
system.cpu0.iq.fu_full::FloatSqrt                   0      0.00%     17.92% # attempts to use FU when none available
system.cpu0.iq.fu_full::SimdAdd                     0      0.00%     17.92% # attempts to use FU when none available
system.cpu0.iq.fu_full::SimdAddAcc                  0      0.00%     17.92% # attempts to use FU when none available
system.cpu0.iq.fu_full::SimdAlu                     0      0.00%     17.92% # attempts to use FU when none available
system.cpu0.iq.fu_full::SimdCmp                     0      0.00%     17.92% # attempts to use FU when none available
system.cpu0.iq.fu_full::SimdCvt                     0      0.00%     17.92% # attempts to use FU when none available
system.cpu0.iq.fu_full::SimdMisc                    0      0.00%     17.92% # attempts to use FU when none available
system.cpu0.iq.fu_full::SimdMult                    0      0.00%     17.92% # attempts to use FU when none available
system.cpu0.iq.fu_full::SimdMultAcc                 0      0.00%     17.92% # attempts to use FU when none available
system.cpu0.iq.fu_full::SimdShift                   0      0.00%     17.92% # attempts to use FU when none available
system.cpu0.iq.fu_full::SimdShiftAcc                0      0.00%     17.92% # attempts to use FU when none available
system.cpu0.iq.fu_full::SimdDiv                     0      0.00%     17.92% # attempts to use FU when none available
system.cpu0.iq.fu_full::SimdSqrt                    0      0.00%     17.92% # attempts to use FU when none available
system.cpu0.iq.fu_full::SimdFloatAdd                0      0.00%     17.92% # attempts to use FU when none available
system.cpu0.iq.fu_full::SimdFloatAlu                0      0.00%     17.92% # attempts to use FU when none available
system.cpu0.iq.fu_full::SimdFloatCmp                0      0.00%     17.92% # attempts to use FU when none available
system.cpu0.iq.fu_full::SimdFloatCvt                0      0.00%     17.92% # attempts to use FU when none available
system.cpu0.iq.fu_full::SimdFloatDiv                0      0.00%     17.92% # attempts to use FU when none available
system.cpu0.iq.fu_full::SimdFloatMisc               0      0.00%     17.92% # attempts to use FU when none available
system.cpu0.iq.fu_full::SimdFloatMult               0      0.00%     17.92% # attempts to use FU when none available
system.cpu0.iq.fu_full::SimdFloatMultAcc            0      0.00%     17.92% # attempts to use FU when none available
system.cpu0.iq.fu_full::SimdFloatSqrt               0      0.00%     17.92% # attempts to use FU when none available
system.cpu0.iq.fu_full::SimdReduceAdd               0      0.00%     17.92% # attempts to use FU when none available
system.cpu0.iq.fu_full::SimdReduceAlu               0      0.00%     17.92% # attempts to use FU when none available
system.cpu0.iq.fu_full::SimdReduceCmp               0      0.00%     17.92% # attempts to use FU when none available
system.cpu0.iq.fu_full::SimdFloatReduceAdd            0      0.00%     17.92% # attempts to use FU when none available
system.cpu0.iq.fu_full::SimdFloatReduceCmp            0      0.00%     17.92% # attempts to use FU when none available
system.cpu0.iq.fu_full::SimdAes                     0      0.00%     17.92% # attempts to use FU when none available
system.cpu0.iq.fu_full::SimdAesMix                  0      0.00%     17.92% # attempts to use FU when none available
system.cpu0.iq.fu_full::SimdSha1Hash                0      0.00%     17.92% # attempts to use FU when none available
system.cpu0.iq.fu_full::SimdSha1Hash2               0      0.00%     17.92% # attempts to use FU when none available
system.cpu0.iq.fu_full::SimdSha256Hash              0      0.00%     17.92% # attempts to use FU when none available
system.cpu0.iq.fu_full::SimdSha256Hash2             0      0.00%     17.92% # attempts to use FU when none available
system.cpu0.iq.fu_full::SimdShaSigma2               0      0.00%     17.92% # attempts to use FU when none available
system.cpu0.iq.fu_full::SimdShaSigma3               0      0.00%     17.92% # attempts to use FU when none available
system.cpu0.iq.fu_full::SimdPredAlu                 0      0.00%     17.92% # attempts to use FU when none available
system.cpu0.iq.fu_full::MemRead               1124064     71.36%     89.28% # attempts to use FU when none available
system.cpu0.iq.fu_full::MemWrite               168832     10.72%    100.00% # attempts to use FU when none available
system.cpu0.iq.fu_full::FloatMemRead                0      0.00%    100.00% # attempts to use FU when none available
system.cpu0.iq.fu_full::FloatMemWrite               2      0.00%    100.00% # attempts to use FU when none available
system.cpu0.iq.fu_full::IprAccess                   0      0.00%    100.00% # attempts to use FU when none available
system.cpu0.iq.fu_full::InstPrefetch                0      0.00%    100.00% # attempts to use FU when none available
system.cpu0.iq.int_alu_accesses             614190830                       # Number of integer alu accesses
system.cpu0.iq.int_inst_queue_reads        2325401588                       # Number of integer instruction queue reads
system.cpu0.iq.int_inst_queue_wakeup_accesses    604345152                       # Number of integer instruction queue wakeup accesses
system.cpu0.iq.int_inst_queue_writes        686306881                       # Number of integer instruction queue writes
system.cpu0.iq.iqInstsAdded                 627728762                       # Number of instructions added to the IQ (excludes non-spec)
system.cpu0.iq.iqInstsIssued                614654202                       # Number of instructions issued
system.cpu0.iq.iqNonSpecInstsAdded            6075661                       # Number of non-speculative instructions added to the IQ
system.cpu0.iq.iqSquashedInstsExamined       52494832                       # Number of squashed instructions iterated over during squash; mainly for profiling
system.cpu0.iq.iqSquashedInstsIssued           108025                       # Number of squashed instructions issued
system.cpu0.iq.iqSquashedNonSpecRemoved       3017189                       # Number of squashed non-spec instructions that were removed
system.cpu0.iq.iqSquashedOperandsExamined     30246695                       # Number of squashed operands that are examined and possibly removed from graph
system.cpu0.iq.issued_per_cycle::samples   1094410077                       # Number of insts issued each cycle
system.cpu0.iq.issued_per_cycle::mean        0.561631                       # Number of insts issued each cycle
system.cpu0.iq.issued_per_cycle::stdev       0.805653                       # Number of insts issued each cycle
system.cpu0.iq.issued_per_cycle::underflows            0      0.00%      0.00% # Number of insts issued each cycle
system.cpu0.iq.issued_per_cycle::0          646712577     59.09%     59.09% # Number of insts issued each cycle
system.cpu0.iq.issued_per_cycle::1          318897058     29.14%     88.23% # Number of insts issued each cycle
system.cpu0.iq.issued_per_cycle::2          100904619      9.22%     97.45% # Number of insts issued each cycle
system.cpu0.iq.issued_per_cycle::3           20748568      1.90%     99.35% # Number of insts issued each cycle
system.cpu0.iq.issued_per_cycle::4            5434197      0.50%     99.84% # Number of insts issued each cycle
system.cpu0.iq.issued_per_cycle::5             767812      0.07%     99.91% # Number of insts issued each cycle
system.cpu0.iq.issued_per_cycle::6             604242      0.06%     99.97% # Number of insts issued each cycle
system.cpu0.iq.issued_per_cycle::7             227130      0.02%     99.99% # Number of insts issued each cycle
system.cpu0.iq.issued_per_cycle::8             113874      0.01%    100.00% # Number of insts issued each cycle
system.cpu0.iq.issued_per_cycle::overflows            0      0.00%    100.00% # Number of insts issued each cycle
system.cpu0.iq.issued_per_cycle::min_value            0                       # Number of insts issued each cycle
system.cpu0.iq.issued_per_cycle::max_value            8                       # Number of insts issued each cycle
system.cpu0.iq.issued_per_cycle::total     1094410077                       # Number of insts issued each cycle
system.cpu0.iq.rate                          0.524577                       # Inst issue rate
system.cpu0.iq.vec_alu_accesses                     0                       # Number of vector alu accesses
system.cpu0.iq.vec_inst_queue_reads                 0                       # Number of vector instruction queue reads
system.cpu0.iq.vec_inst_queue_wakeup_accesses            0                       # Number of vector instruction queue wakeup accesses
system.cpu0.iq.vec_inst_queue_writes                0                       # Number of vector instruction queue writes
system.cpu0.itb.accesses                            0                       # DTB accesses
system.cpu0.itb.hits                                0                       # DTB hits
system.cpu0.itb.misses                              0                       # DTB misses
system.cpu0.itb.read_accesses                       0                       # DTB read accesses
system.cpu0.itb.read_hits                           0                       # DTB read hits
system.cpu0.itb.read_misses                         0                       # DTB read misses
system.cpu0.itb.write_accesses                      0                       # DTB write accesses
system.cpu0.itb.write_hits                          0                       # DTB write hits
system.cpu0.itb.write_misses                        0                       # DTB write misses
system.cpu0.memDep0.conflictingLoads         17414373                       # Number of conflicting loads.
system.cpu0.memDep0.conflictingStores         3080209                       # Number of conflicting stores.
system.cpu0.memDep0.insertedLoads           198607857                       # Number of loads inserted to the mem dependence unit.
system.cpu0.memDep0.insertedStores           77644098                       # Number of stores inserted to the mem dependence unit.
system.cpu0.misc_regfile_reads                    880                       # number of misc regfile reads
system.cpu0.misc_regfile_writes                    22                       # number of misc regfile writes
system.cpu0.numCycles                      1171714205                       # number of cpu cycles simulated
system.cpu0.numWorkItemsCompleted                   0                       # number of work items this cpu completed
system.cpu0.numWorkItemsStarted                     0                       # number of work items this cpu started
system.cpu0.quiesceCycles                    11487550                       # Total number of cycles that CPU has spent quiesced or waiting for an interrupt
system.cpu0.rename.BlockCycles              151989898                       # Number of cycles rename is blocking
system.cpu0.rename.CommittedMaps            370569524                       # Number of HB maps that are committed
system.cpu0.rename.IQFullEvents               6839909                       # Number of times rename has blocked due to IQ full
system.cpu0.rename.IdleCycles               475876349                       # Number of cycles rename is idle
system.cpu0.rename.LQFullEvents              11812386                       # Number of times rename has blocked due to LQ full
system.cpu0.rename.ROBFullEvents                13029                       # Number of times rename has blocked due to ROB full
system.cpu0.rename.RenameLookups            784181743                       # Number of register rename lookups that rename has made
system.cpu0.rename.RenamedInsts             642565283                       # Number of instructions processed by rename
system.cpu0.rename.RenamedOperands          412322594                       # Number of destination operands rename has renamed
system.cpu0.rename.RunCycles                432762665                       # Number of cycles rename is running
system.cpu0.rename.SQFullEvents               8910696                       # Number of times rename has blocked due to SQ full
system.cpu0.rename.SquashCycles               5750024                       # Number of cycles rename is squashing
system.cpu0.rename.UnblockCycles             27947505                       # Number of cycles rename is unblocking
system.cpu0.rename.UndoneMaps                41753065                       # Number of HB maps that are undone due to squashing
system.cpu0.rename.fp_rename_lookups               44                       # Number of floating rename lookups
system.cpu0.rename.int_rename_lookups       784181699                       # Number of integer rename lookups
system.cpu0.rename.serializeStallCycles         83636                       # count of cycles rename stalled for serializing inst
system.cpu0.rename.serializingInsts              2819                       # count of serializing insts renamed
system.cpu0.rename.skidInsts                 14614529                       # count of insts added to the skid buffer
system.cpu0.rename.tempSerializingInsts          2774                       # count of temporary serializing insts renamed
system.cpu0.rob.rob_reads                  1702623134                       # The number of ROB reads
system.cpu0.rob.rob_writes                 1277587406                       # The number of ROB writes
system.cpu0.timesIdled                       15124540                       # Number of times that the entire CPU went into an idle state and unscheduled itself
system.cpu0.workload.numSyscalls                  847                       # Number of system calls
system.cpu1.branchPred.BTBCorrect                   0                       # Number of correct BTB predictions (this stat may not work properly.
system.cpu1.branchPred.BTBHitPct            74.141494                       # BTB Hit Percentage
system.cpu1.branchPred.BTBHits                4561614                       # Number of BTB hits
system.cpu1.branchPred.BTBLookups             6152579                       # Number of BTB lookups
system.cpu1.branchPred.RASInCorrect                 0                       # Number of incorrect RAS predictions.
system.cpu1.branchPred.condIncorrect           760712                       # Number of conditional branches incorrect
system.cpu1.branchPred.condPredicted          7911009                       # Number of conditional branches predicted
system.cpu1.branchPred.indirectHits            244343                       # Number of indirect target hits.
system.cpu1.branchPred.indirectLookups         393562                       # Number of indirect predictor lookups.
system.cpu1.branchPred.indirectMisses          149219                       # Number of indirect misses.
system.cpu1.branchPred.lookups                8883930                       # Number of BP lookups
system.cpu1.branchPred.usedRAS                      0                       # Number of times the RAS was used to get a target.
system.cpu1.branchPredindirectMispredicted         3263                       # Number of mispredicted indirect branches.
system.cpu1.commit.amos                       1017927                       # Number of atomic instructions committed
system.cpu1.commit.branchMispredicts           456497                       # The number of times a branch was mispredicted
system.cpu1.commit.branches                   7095806                       # Number of branches committed
system.cpu1.commit.bw_lim_events               864517                       # number cycles where commit BW limit reached
system.cpu1.commit.commitNonSpecStalls        3054443                       # The number of times commit has been forced to stall to communicate backwards
system.cpu1.commit.commitSquashedInsts        5071101                       # The number of squashed insts skipped by commit
system.cpu1.commit.committedInsts            32264547                       # Number of instructions committed
system.cpu1.commit.committedOps              33282650                       # Number of ops (including micro ops) committed
system.cpu1.commit.committed_per_cycle::samples    197315868                       # Number of insts commited each cycle
system.cpu1.commit.committed_per_cycle::mean     0.168677                       # Number of insts commited each cycle
system.cpu1.commit.committed_per_cycle::stdev     0.821689                       # Number of insts commited each cycle
system.cpu1.commit.committed_per_cycle::underflows            0      0.00%      0.00% # Number of insts commited each cycle
system.cpu1.commit.committed_per_cycle::0    183639873     93.07%     93.07% # Number of insts commited each cycle
system.cpu1.commit.committed_per_cycle::1      6855572      3.47%     96.54% # Number of insts commited each cycle
system.cpu1.commit.committed_per_cycle::2      2313724      1.17%     97.72% # Number of insts commited each cycle
system.cpu1.commit.committed_per_cycle::3      1967610      1.00%     98.71% # Number of insts commited each cycle
system.cpu1.commit.committed_per_cycle::4       492677      0.25%     98.96% # Number of insts commited each cycle
system.cpu1.commit.committed_per_cycle::5       157819      0.08%     99.04% # Number of insts commited each cycle
system.cpu1.commit.committed_per_cycle::6       947671      0.48%     99.52% # Number of insts commited each cycle
system.cpu1.commit.committed_per_cycle::7        76405      0.04%     99.56% # Number of insts commited each cycle
system.cpu1.commit.committed_per_cycle::8       864517      0.44%    100.00% # Number of insts commited each cycle
system.cpu1.commit.committed_per_cycle::overflows            0      0.00%    100.00% # Number of insts commited each cycle
system.cpu1.commit.committed_per_cycle::min_value            0                       # Number of insts commited each cycle
system.cpu1.commit.committed_per_cycle::max_value            8                       # Number of insts commited each cycle
system.cpu1.commit.committed_per_cycle::total    197315868                       # Number of insts commited each cycle
system.cpu1.commit.fp_insts                        12                       # Number of committed floating point instructions.
system.cpu1.commit.function_calls              320854                       # Number of function calls committed.
system.cpu1.commit.int_insts                 31049332                       # Number of committed integer instructions.
system.cpu1.commit.loads                      9248844                       # Number of loads committed
system.cpu1.commit.membars                    2035979                       # Number of memory barriers committed
system.cpu1.commit.op_class_0::No_OpClass      2035979      6.12%      6.12% # Class of committed instruction
system.cpu1.commit.op_class_0::IntAlu        19083610     57.34%     63.46% # Class of committed instruction
system.cpu1.commit.op_class_0::IntMult             42      0.00%     63.46% # Class of committed instruction
system.cpu1.commit.op_class_0::IntDiv              84      0.00%     63.46% # Class of committed instruction
system.cpu1.commit.op_class_0::FloatAdd             0      0.00%     63.46% # Class of committed instruction
system.cpu1.commit.op_class_0::FloatCmp             0      0.00%     63.46% # Class of committed instruction
system.cpu1.commit.op_class_0::FloatCvt             0      0.00%     63.46% # Class of committed instruction
system.cpu1.commit.op_class_0::FloatMult            0      0.00%     63.46% # Class of committed instruction
system.cpu1.commit.op_class_0::FloatMultAcc            0      0.00%     63.46% # Class of committed instruction
system.cpu1.commit.op_class_0::FloatDiv             0      0.00%     63.46% # Class of committed instruction
system.cpu1.commit.op_class_0::FloatMisc            0      0.00%     63.46% # Class of committed instruction
system.cpu1.commit.op_class_0::FloatSqrt            0      0.00%     63.46% # Class of committed instruction
system.cpu1.commit.op_class_0::SimdAdd              0      0.00%     63.46% # Class of committed instruction
system.cpu1.commit.op_class_0::SimdAddAcc            0      0.00%     63.46% # Class of committed instruction
system.cpu1.commit.op_class_0::SimdAlu              0      0.00%     63.46% # Class of committed instruction
system.cpu1.commit.op_class_0::SimdCmp              0      0.00%     63.46% # Class of committed instruction
system.cpu1.commit.op_class_0::SimdCvt              0      0.00%     63.46% # Class of committed instruction
system.cpu1.commit.op_class_0::SimdMisc             0      0.00%     63.46% # Class of committed instruction
system.cpu1.commit.op_class_0::SimdMult             0      0.00%     63.46% # Class of committed instruction
system.cpu1.commit.op_class_0::SimdMultAcc            0      0.00%     63.46% # Class of committed instruction
system.cpu1.commit.op_class_0::SimdShift            0      0.00%     63.46% # Class of committed instruction
system.cpu1.commit.op_class_0::SimdShiftAcc            0      0.00%     63.46% # Class of committed instruction
system.cpu1.commit.op_class_0::SimdDiv              0      0.00%     63.46% # Class of committed instruction
system.cpu1.commit.op_class_0::SimdSqrt             0      0.00%     63.46% # Class of committed instruction
system.cpu1.commit.op_class_0::SimdFloatAdd            0      0.00%     63.46% # Class of committed instruction
system.cpu1.commit.op_class_0::SimdFloatAlu            0      0.00%     63.46% # Class of committed instruction
system.cpu1.commit.op_class_0::SimdFloatCmp            0      0.00%     63.46% # Class of committed instruction
system.cpu1.commit.op_class_0::SimdFloatCvt            0      0.00%     63.46% # Class of committed instruction
system.cpu1.commit.op_class_0::SimdFloatDiv            0      0.00%     63.46% # Class of committed instruction
system.cpu1.commit.op_class_0::SimdFloatMisc            0      0.00%     63.46% # Class of committed instruction
system.cpu1.commit.op_class_0::SimdFloatMult            0      0.00%     63.46% # Class of committed instruction
system.cpu1.commit.op_class_0::SimdFloatMultAcc            0      0.00%     63.46% # Class of committed instruction
system.cpu1.commit.op_class_0::SimdFloatSqrt            0      0.00%     63.46% # Class of committed instruction
system.cpu1.commit.op_class_0::SimdReduceAdd            0      0.00%     63.46% # Class of committed instruction
system.cpu1.commit.op_class_0::SimdReduceAlu            0      0.00%     63.46% # Class of committed instruction
system.cpu1.commit.op_class_0::SimdReduceCmp            0      0.00%     63.46% # Class of committed instruction
system.cpu1.commit.op_class_0::SimdFloatReduceAdd            0      0.00%     63.46% # Class of committed instruction
system.cpu1.commit.op_class_0::SimdFloatReduceCmp            0      0.00%     63.46% # Class of committed instruction
system.cpu1.commit.op_class_0::SimdAes              0      0.00%     63.46% # Class of committed instruction
system.cpu1.commit.op_class_0::SimdAesMix            0      0.00%     63.46% # Class of committed instruction
system.cpu1.commit.op_class_0::SimdSha1Hash            0      0.00%     63.46% # Class of committed instruction
system.cpu1.commit.op_class_0::SimdSha1Hash2            0      0.00%     63.46% # Class of committed instruction
system.cpu1.commit.op_class_0::SimdSha256Hash            0      0.00%     63.46% # Class of committed instruction
system.cpu1.commit.op_class_0::SimdSha256Hash2            0      0.00%     63.46% # Class of committed instruction
system.cpu1.commit.op_class_0::SimdShaSigma2            0      0.00%     63.46% # Class of committed instruction
system.cpu1.commit.op_class_0::SimdShaSigma3            0      0.00%     63.46% # Class of committed instruction
system.cpu1.commit.op_class_0::SimdPredAlu            0      0.00%     63.46% # Class of committed instruction
system.cpu1.commit.op_class_0::MemRead       10266771     30.85%     94.30% # Class of committed instruction
system.cpu1.commit.op_class_0::MemWrite       1896152      5.70%    100.00% # Class of committed instruction
system.cpu1.commit.op_class_0::FloatMemRead            0      0.00%    100.00% # Class of committed instruction
system.cpu1.commit.op_class_0::FloatMemWrite           12      0.00%    100.00% # Class of committed instruction
system.cpu1.commit.op_class_0::IprAccess            0      0.00%    100.00% # Class of committed instruction
system.cpu1.commit.op_class_0::InstPrefetch            0      0.00%    100.00% # Class of committed instruction
system.cpu1.commit.op_class_0::total         33282650                       # Class of committed instruction
system.cpu1.commit.refs                      12162935                       # Number of memory references committed
system.cpu1.commit.swp_count                        0                       # Number of s/w prefetches committed
system.cpu1.commit.vec_insts                        0                       # Number of committed Vector instructions.
system.cpu1.committedInsts                   32264547                       # Number of Instructions Simulated
system.cpu1.committedOps                     33282650                       # Number of Ops (including micro ops) Simulated
system.cpu1.cpi                              6.150075                       # CPI: Cycles Per Instruction
system.cpu1.cpi_total                        6.150075                       # CPI: Total CPI of All Threads
system.cpu1.decode.BlockedCycles            177633899                       # Number of cycles decode is blocked
system.cpu1.decode.BranchMispred               306365                       # Number of times decode detected a branch misprediction
system.cpu1.decode.BranchResolved             4399131                       # Number of times decode resolved a branch
system.cpu1.decode.DecodedInsts              40134146                       # Number of instructions handled by decode
system.cpu1.decode.IdleCycles                 5641111                       # Number of cycles decode is idle
system.cpu1.decode.RunCycles                 12085219                       # Number of cycles decode is running
system.cpu1.decode.SquashCycles                456677                       # Number of cycles decode is squashing
system.cpu1.decode.SquashedInsts               567640                       # Number of squashed instructions handled by decode
system.cpu1.decode.UnblockCycles              2375208                       # Number of cycles decode is unblocking
system.cpu1.dtb.accesses                            0                       # DTB accesses
system.cpu1.dtb.hits                                0                       # DTB hits
system.cpu1.dtb.misses                              0                       # DTB misses
system.cpu1.dtb.read_accesses                       0                       # DTB read accesses
system.cpu1.dtb.read_hits                           0                       # DTB read hits
system.cpu1.dtb.read_misses                         0                       # DTB read misses
system.cpu1.dtb.write_accesses                      0                       # DTB write accesses
system.cpu1.dtb.write_hits                          0                       # DTB write hits
system.cpu1.dtb.write_misses                        0                       # DTB write misses
system.cpu1.fetch.Branches                    8883930                       # Number of branches that fetch encountered
system.cpu1.fetch.CacheLines                  5091994                       # Number of cache lines fetched
system.cpu1.fetch.Cycles                    191936472                       # Number of cycles fetch has run and was not squashing or blocked
system.cpu1.fetch.IcacheSquashes                49201                       # Number of outstanding Icache misses that were squashed
system.cpu1.fetch.IcacheWaitRetryStallCycles           11                       # Number of stall cycles due to full MSHR
system.cpu1.fetch.Insts                      40982213                       # Number of instructions fetch has processed
system.cpu1.fetch.MiscStallCycles                   2                       # Number of cycles fetch has spent waiting on interrupts, or bad addresses, or out of MSHRs
system.cpu1.fetch.SquashCycles                1521784                       # Number of cycles fetch has spent squashing
system.cpu1.fetch.branchRate                 0.044771                       # Number of branch fetches per cycle
system.cpu1.fetch.icacheStallCycles           5494737                       # Number of cycles fetch is stalled on an Icache miss
system.cpu1.fetch.predictedBranches           4805957                       # Number of branches that fetch has predicted taken
system.cpu1.fetch.rate                       0.206533                       # Number of inst fetches per cycle
system.cpu1.fetch.rateDist::samples         198192114                       # Number of instructions fetched each cycle (Total)
system.cpu1.fetch.rateDist::mean             0.211919                       # Number of instructions fetched each cycle (Total)
system.cpu1.fetch.rateDist::stdev            0.656788                       # Number of instructions fetched each cycle (Total)
system.cpu1.fetch.rateDist::underflows              0      0.00%      0.00% # Number of instructions fetched each cycle (Total)
system.cpu1.fetch.rateDist::0               173439445     87.51%     87.51% # Number of instructions fetched each cycle (Total)
system.cpu1.fetch.rateDist::1                14139011      7.13%     94.64% # Number of instructions fetched each cycle (Total)
system.cpu1.fetch.rateDist::2                 5829090      2.94%     97.59% # Number of instructions fetched each cycle (Total)
system.cpu1.fetch.rateDist::3                 3395412      1.71%     99.30% # Number of instructions fetched each cycle (Total)
system.cpu1.fetch.rateDist::4                  932581      0.47%     99.77% # Number of instructions fetched each cycle (Total)
system.cpu1.fetch.rateDist::5                  453014      0.23%    100.00% # Number of instructions fetched each cycle (Total)
system.cpu1.fetch.rateDist::6                    3268      0.00%    100.00% # Number of instructions fetched each cycle (Total)
system.cpu1.fetch.rateDist::7                     141      0.00%    100.00% # Number of instructions fetched each cycle (Total)
system.cpu1.fetch.rateDist::8                     152      0.00%    100.00% # Number of instructions fetched each cycle (Total)
system.cpu1.fetch.rateDist::overflows               0      0.00%    100.00% # Number of instructions fetched each cycle (Total)
system.cpu1.fetch.rateDist::min_value               0                       # Number of instructions fetched each cycle (Total)
system.cpu1.fetch.rateDist::max_value               8                       # Number of instructions fetched each cycle (Total)
system.cpu1.fetch.rateDist::total           198192114                       # Number of instructions fetched each cycle (Total)
system.cpu1.fp_regfile_reads                       12                       # number of floating regfile reads
system.cpu1.idleCycles                         237271                       # Total number of cycles that the CPU has spent unscheduled due to idling
system.cpu1.iew.branchMispredicts              491764                       # Number of branch mispredicts detected at execute
system.cpu1.iew.exec_branches                 7722767                       # Number of branches executed
system.cpu1.iew.exec_nop                            0                       # number of nop insts executed
system.cpu1.iew.exec_rate                    0.184345                       # Inst execution rate
system.cpu1.iew.exec_refs                    13116762                       # number of memory reference insts executed
system.cpu1.iew.exec_stores                   2946312                       # Number of stores executed
system.cpu1.iew.exec_swp                            0                       # number of swp insts executed
system.cpu1.iew.iewBlockCycles              152052787                       # Number of cycles IEW is blocking
system.cpu1.iew.iewDispLoadInsts             10348512                       # Number of dispatched load instructions
system.cpu1.iew.iewDispNonSpecInsts           1018535                       # Number of dispatched non-speculative instructions
system.cpu1.iew.iewDispSquashedInsts           244942                       # Number of squashed instructions skipped by dispatch
system.cpu1.iew.iewDispStoreInsts             2983991                       # Number of dispatched store instructions
system.cpu1.iew.iewDispatchedInsts           38345989                       # Number of instructions dispatched to IQ
system.cpu1.iew.iewExecLoadInsts             10170450                       # Number of load instructions executed
system.cpu1.iew.iewExecSquashedInsts           630084                       # Number of squashed instructions skipped in execute
system.cpu1.iew.iewExecutedInsts             36579373                       # Number of executed instructions
system.cpu1.iew.iewIQFullEvents               1013355                       # Number of times the IQ has become full, causing a stall
system.cpu1.iew.iewIdleCycles                       0                       # Number of cycles IEW is idle
system.cpu1.iew.iewLSQFullEvents              3588808                       # Number of times the LSQ has become full, causing a stall
system.cpu1.iew.iewSquashCycles                456677                       # Number of cycles IEW is squashing
system.cpu1.iew.iewUnblockCycles              5712623                       # Number of cycles IEW is unblocking
system.cpu1.iew.lsq.thread0.blockedLoads            0                       # Number of blocked loads due to partial load-store forwarding
system.cpu1.iew.lsq.thread0.cacheBlocked        33413                       # Number of times an access to memory failed due to the cache being blocked
system.cpu1.iew.lsq.thread0.forwLoads          169072                       # Number of loads that had data forwarded from stores
system.cpu1.iew.lsq.thread0.ignoredResponses         5097                       # Number of memory responses ignored because the instruction is squashed
system.cpu1.iew.lsq.thread0.invAddrLoads            0                       # Number of loads ignored due to an invalid address
system.cpu1.iew.lsq.thread0.invAddrSwpfs            0                       # Number of software prefetches ignored due to an invalid address
system.cpu1.iew.lsq.thread0.memOrderViolation          126                       # Number of memory ordering violations
system.cpu1.iew.lsq.thread0.rescheduledLoads          431                       # Number of loads that were rescheduled
system.cpu1.iew.lsq.thread0.squashedLoads      1099668                       # Number of loads squashed
system.cpu1.iew.lsq.thread0.squashedStores        69900                       # Number of stores squashed
system.cpu1.iew.memOrderViolationEvents           126                       # Number of memory order violations
system.cpu1.iew.predictedNotTakenIncorrect        94425                       # Number of branches that were predicted not taken incorrectly
system.cpu1.iew.predictedTakenIncorrect        397339                       # Number of branches that were predicted taken incorrectly
system.cpu1.iew.wb_consumers                 21652669                       # num instructions consuming a value
system.cpu1.iew.wb_count                     36216666                       # cumulative count of insts written-back
system.cpu1.iew.wb_fanout                    0.859362                       # average fanout of values written-back
system.cpu1.iew.wb_producers                 18607477                       # num instructions producing a value
system.cpu1.iew.wb_rate                      0.182517                       # insts written-back per cycle
system.cpu1.iew.wb_sent                      36226165                       # cumulative count of insts sent to commit
system.cpu1.int_regfile_reads                44950459                       # number of integer regfile reads
system.cpu1.int_regfile_writes               24735391                       # number of integer regfile writes
system.cpu1.ipc                              0.162600                       # IPC: Instructions Per Cycle
system.cpu1.ipc_total                        0.162600                       # IPC: Total IPC of All Threads
system.cpu1.iq.FU_type_0::No_OpClass          2036080      5.47%      5.47% # Type of FU issued
system.cpu1.iq.FU_type_0::IntAlu             21964514     59.03%     64.50% # Type of FU issued
system.cpu1.iq.FU_type_0::IntMult                  44      0.00%     64.50% # Type of FU issued
system.cpu1.iq.FU_type_0::IntDiv                   84      0.00%     64.50% # Type of FU issued
system.cpu1.iq.FU_type_0::FloatAdd                  0      0.00%     64.50% # Type of FU issued
system.cpu1.iq.FU_type_0::FloatCmp                  0      0.00%     64.50% # Type of FU issued
system.cpu1.iq.FU_type_0::FloatCvt                  0      0.00%     64.50% # Type of FU issued
system.cpu1.iq.FU_type_0::FloatMult                 0      0.00%     64.50% # Type of FU issued
system.cpu1.iq.FU_type_0::FloatMultAcc              0      0.00%     64.50% # Type of FU issued
system.cpu1.iq.FU_type_0::FloatDiv                  0      0.00%     64.50% # Type of FU issued
system.cpu1.iq.FU_type_0::FloatMisc                 0      0.00%     64.50% # Type of FU issued
system.cpu1.iq.FU_type_0::FloatSqrt                 0      0.00%     64.50% # Type of FU issued
system.cpu1.iq.FU_type_0::SimdAdd                   0      0.00%     64.50% # Type of FU issued
system.cpu1.iq.FU_type_0::SimdAddAcc                0      0.00%     64.50% # Type of FU issued
system.cpu1.iq.FU_type_0::SimdAlu                   0      0.00%     64.50% # Type of FU issued
system.cpu1.iq.FU_type_0::SimdCmp                   0      0.00%     64.50% # Type of FU issued
system.cpu1.iq.FU_type_0::SimdCvt                   0      0.00%     64.50% # Type of FU issued
system.cpu1.iq.FU_type_0::SimdMisc                  0      0.00%     64.50% # Type of FU issued
system.cpu1.iq.FU_type_0::SimdMult                  0      0.00%     64.50% # Type of FU issued
system.cpu1.iq.FU_type_0::SimdMultAcc               0      0.00%     64.50% # Type of FU issued
system.cpu1.iq.FU_type_0::SimdShift                 0      0.00%     64.50% # Type of FU issued
system.cpu1.iq.FU_type_0::SimdShiftAcc              0      0.00%     64.50% # Type of FU issued
system.cpu1.iq.FU_type_0::SimdDiv                   0      0.00%     64.50% # Type of FU issued
system.cpu1.iq.FU_type_0::SimdSqrt                  0      0.00%     64.50% # Type of FU issued
system.cpu1.iq.FU_type_0::SimdFloatAdd              0      0.00%     64.50% # Type of FU issued
system.cpu1.iq.FU_type_0::SimdFloatAlu              0      0.00%     64.50% # Type of FU issued
system.cpu1.iq.FU_type_0::SimdFloatCmp              0      0.00%     64.50% # Type of FU issued
system.cpu1.iq.FU_type_0::SimdFloatCvt              0      0.00%     64.50% # Type of FU issued
system.cpu1.iq.FU_type_0::SimdFloatDiv              0      0.00%     64.50% # Type of FU issued
system.cpu1.iq.FU_type_0::SimdFloatMisc             0      0.00%     64.50% # Type of FU issued
system.cpu1.iq.FU_type_0::SimdFloatMult             0      0.00%     64.50% # Type of FU issued
system.cpu1.iq.FU_type_0::SimdFloatMultAcc            0      0.00%     64.50% # Type of FU issued
system.cpu1.iq.FU_type_0::SimdFloatSqrt             0      0.00%     64.50% # Type of FU issued
system.cpu1.iq.FU_type_0::SimdReduceAdd             0      0.00%     64.50% # Type of FU issued
system.cpu1.iq.FU_type_0::SimdReduceAlu             0      0.00%     64.50% # Type of FU issued
system.cpu1.iq.FU_type_0::SimdReduceCmp             0      0.00%     64.50% # Type of FU issued
system.cpu1.iq.FU_type_0::SimdFloatReduceAdd            0      0.00%     64.50% # Type of FU issued
system.cpu1.iq.FU_type_0::SimdFloatReduceCmp            0      0.00%     64.50% # Type of FU issued
system.cpu1.iq.FU_type_0::SimdAes                   0      0.00%     64.50% # Type of FU issued
system.cpu1.iq.FU_type_0::SimdAesMix                0      0.00%     64.50% # Type of FU issued
system.cpu1.iq.FU_type_0::SimdSha1Hash              0      0.00%     64.50% # Type of FU issued
system.cpu1.iq.FU_type_0::SimdSha1Hash2             0      0.00%     64.50% # Type of FU issued
system.cpu1.iq.FU_type_0::SimdSha256Hash            0      0.00%     64.50% # Type of FU issued
system.cpu1.iq.FU_type_0::SimdSha256Hash2            0      0.00%     64.50% # Type of FU issued
system.cpu1.iq.FU_type_0::SimdShaSigma2             0      0.00%     64.50% # Type of FU issued
system.cpu1.iq.FU_type_0::SimdShaSigma3             0      0.00%     64.50% # Type of FU issued
system.cpu1.iq.FU_type_0::SimdPredAlu               0      0.00%     64.50% # Type of FU issued
system.cpu1.iq.FU_type_0::MemRead            11272305     30.29%     94.80% # Type of FU issued
system.cpu1.iq.FU_type_0::MemWrite            1936418      5.20%    100.00% # Type of FU issued
system.cpu1.iq.FU_type_0::FloatMemRead              0      0.00%    100.00% # Type of FU issued
system.cpu1.iq.FU_type_0::FloatMemWrite            12      0.00%    100.00% # Type of FU issued
system.cpu1.iq.FU_type_0::IprAccess                 0      0.00%    100.00% # Type of FU issued
system.cpu1.iq.FU_type_0::InstPrefetch              0      0.00%    100.00% # Type of FU issued
system.cpu1.iq.FU_type_0::total              37209457                       # Type of FU issued
system.cpu1.iq.fp_alu_accesses                     14                       # Number of floating point alu accesses
system.cpu1.iq.fp_inst_queue_reads                 26                       # Number of floating instruction queue reads
system.cpu1.iq.fp_inst_queue_wakeup_accesses           12                       # Number of floating instruction queue wakeup accesses
system.cpu1.iq.fp_inst_queue_writes                12                       # Number of floating instruction queue writes
system.cpu1.iq.fu_busy_cnt                    1174710                       # FU busy when requested
system.cpu1.iq.fu_busy_rate                  0.031570                       # FU busy rate (busy events/executed inst)
system.cpu1.iq.fu_full::No_OpClass                  0      0.00%      0.00% # attempts to use FU when none available
system.cpu1.iq.fu_full::IntAlu                 244825     20.84%     20.84% # attempts to use FU when none available
system.cpu1.iq.fu_full::IntMult                     0      0.00%     20.84% # attempts to use FU when none available
system.cpu1.iq.fu_full::IntDiv                      0      0.00%     20.84% # attempts to use FU when none available
system.cpu1.iq.fu_full::FloatAdd                    0      0.00%     20.84% # attempts to use FU when none available
system.cpu1.iq.fu_full::FloatCmp                    0      0.00%     20.84% # attempts to use FU when none available
system.cpu1.iq.fu_full::FloatCvt                    0      0.00%     20.84% # attempts to use FU when none available
system.cpu1.iq.fu_full::FloatMult                   0      0.00%     20.84% # attempts to use FU when none available
system.cpu1.iq.fu_full::FloatMultAcc                0      0.00%     20.84% # attempts to use FU when none available
system.cpu1.iq.fu_full::FloatDiv                    0      0.00%     20.84% # attempts to use FU when none available
system.cpu1.iq.fu_full::FloatMisc                   0      0.00%     20.84% # attempts to use FU when none available
system.cpu1.iq.fu_full::FloatSqrt                   0      0.00%     20.84% # attempts to use FU when none available
system.cpu1.iq.fu_full::SimdAdd                     0      0.00%     20.84% # attempts to use FU when none available
system.cpu1.iq.fu_full::SimdAddAcc                  0      0.00%     20.84% # attempts to use FU when none available
system.cpu1.iq.fu_full::SimdAlu                     0      0.00%     20.84% # attempts to use FU when none available
system.cpu1.iq.fu_full::SimdCmp                     0      0.00%     20.84% # attempts to use FU when none available
system.cpu1.iq.fu_full::SimdCvt                     0      0.00%     20.84% # attempts to use FU when none available
system.cpu1.iq.fu_full::SimdMisc                    0      0.00%     20.84% # attempts to use FU when none available
system.cpu1.iq.fu_full::SimdMult                    0      0.00%     20.84% # attempts to use FU when none available
system.cpu1.iq.fu_full::SimdMultAcc                 0      0.00%     20.84% # attempts to use FU when none available
system.cpu1.iq.fu_full::SimdShift                   0      0.00%     20.84% # attempts to use FU when none available
system.cpu1.iq.fu_full::SimdShiftAcc                0      0.00%     20.84% # attempts to use FU when none available
system.cpu1.iq.fu_full::SimdDiv                     0      0.00%     20.84% # attempts to use FU when none available
system.cpu1.iq.fu_full::SimdSqrt                    0      0.00%     20.84% # attempts to use FU when none available
system.cpu1.iq.fu_full::SimdFloatAdd                0      0.00%     20.84% # attempts to use FU when none available
system.cpu1.iq.fu_full::SimdFloatAlu                0      0.00%     20.84% # attempts to use FU when none available
system.cpu1.iq.fu_full::SimdFloatCmp                0      0.00%     20.84% # attempts to use FU when none available
system.cpu1.iq.fu_full::SimdFloatCvt                0      0.00%     20.84% # attempts to use FU when none available
system.cpu1.iq.fu_full::SimdFloatDiv                0      0.00%     20.84% # attempts to use FU when none available
system.cpu1.iq.fu_full::SimdFloatMisc               0      0.00%     20.84% # attempts to use FU when none available
system.cpu1.iq.fu_full::SimdFloatMult               0      0.00%     20.84% # attempts to use FU when none available
system.cpu1.iq.fu_full::SimdFloatMultAcc            0      0.00%     20.84% # attempts to use FU when none available
system.cpu1.iq.fu_full::SimdFloatSqrt               0      0.00%     20.84% # attempts to use FU when none available
system.cpu1.iq.fu_full::SimdReduceAdd               0      0.00%     20.84% # attempts to use FU when none available
system.cpu1.iq.fu_full::SimdReduceAlu               0      0.00%     20.84% # attempts to use FU when none available
system.cpu1.iq.fu_full::SimdReduceCmp               0      0.00%     20.84% # attempts to use FU when none available
system.cpu1.iq.fu_full::SimdFloatReduceAdd            0      0.00%     20.84% # attempts to use FU when none available
system.cpu1.iq.fu_full::SimdFloatReduceCmp            0      0.00%     20.84% # attempts to use FU when none available
system.cpu1.iq.fu_full::SimdAes                     0      0.00%     20.84% # attempts to use FU when none available
system.cpu1.iq.fu_full::SimdAesMix                  0      0.00%     20.84% # attempts to use FU when none available
system.cpu1.iq.fu_full::SimdSha1Hash                0      0.00%     20.84% # attempts to use FU when none available
system.cpu1.iq.fu_full::SimdSha1Hash2               0      0.00%     20.84% # attempts to use FU when none available
system.cpu1.iq.fu_full::SimdSha256Hash              0      0.00%     20.84% # attempts to use FU when none available
system.cpu1.iq.fu_full::SimdSha256Hash2             0      0.00%     20.84% # attempts to use FU when none available
system.cpu1.iq.fu_full::SimdShaSigma2               0      0.00%     20.84% # attempts to use FU when none available
system.cpu1.iq.fu_full::SimdShaSigma3               0      0.00%     20.84% # attempts to use FU when none available
system.cpu1.iq.fu_full::SimdPredAlu                 0      0.00%     20.84% # attempts to use FU when none available
system.cpu1.iq.fu_full::MemRead                817610     69.60%     90.44% # attempts to use FU when none available
[...]
system.cpu1.dcache.ReadReq_mshr_hits::.cpu1.data      2489232                       # number of ReadReq MSHR hits
system.cpu1.dcache.ReadReq_mshr_hits::total      2489232                       # number of ReadReq MSHR hits
system.cpu1.dcache.ReadReq_mshr_misses::.cpu1.data      1040051                       # number of ReadReq MSHR misses
system.cpu1.dcache.ReadReq_mshr_misses::total      1040051                       # number of ReadReq MSHR misses
system.cpu1.dcache.ReadReq_mshr_miss_latency::.cpu1.data  86350326500                       # number of ReadReq MSHR miss cycles
system.cpu1.dcache.ReadReq_mshr_miss_latency::total  86350326500                       # number of ReadReq MSHR miss cycles
system.cpu1.dcache.ReadReq_mshr_miss_rate::.cpu1.data     0.051116                       # mshr miss rate for ReadReq accesses
system.cpu1.dcache.ReadReq_mshr_miss_rate::total     0.051116                       # mshr miss rate for ReadReq accesses
system.cpu1.dcache.ReadReq_avg_mshr_miss_latency::.cpu1.data 83025.088674                       # average ReadReq mshr miss latency
system.cpu1.dcache.ReadReq_avg_mshr_miss_latency::total 83025.088674                       # average ReadReq mshr miss latency
system.cpu1.dcache.WriteReq_hits::.cpu1.data       242600                       # number of WriteReq hits
system.cpu1.dcache.WriteReq_hits::total        242600                       # number of WriteReq hits
system.cpu1.dcache.WriteReq_misses::.cpu1.data       583502                       # number of WriteReq misses
system.cpu1.dcache.WriteReq_misses::total       583502                       # number of WriteReq misses
system.cpu1.dcache.WriteReq_miss_latency::.cpu1.data  46454324488                       # number of WriteReq miss cycles
system.cpu1.dcache.WriteReq_miss_latency::total  46454324488                       # number of WriteReq miss cycles
system.cpu1.dcache.WriteReq_accesses::.cpu1.data       826102                       # number of WriteReq accesses(hits+misses)
system.cpu1.dcache.WriteReq_accesses::total       826102                       # number of WriteReq accesses(hits+misses)
system.cpu1.dcache.WriteReq_miss_rate::.cpu1.data     0.706332                       # miss rate for WriteReq accesses
system.cpu1.dcache.WriteReq_miss_rate::total     0.706332                       # miss rate for WriteReq accesses
system.cpu1.dcache.WriteReq_avg_miss_latency::.cpu1.data 79612.965316                       # average WriteReq miss latency
system.cpu1.dcache.WriteReq_avg_miss_latency::total 79612.965316                       # average WriteReq miss latency
system.cpu1.dcache.WriteReq_mshr_hits::.cpu1.data       544492                       # number of WriteReq MSHR hits
system.cpu1.dcache.WriteReq_mshr_hits::total       544492                       # number of WriteReq MSHR hits
system.cpu1.dcache.WriteReq_mshr_misses::.cpu1.data        39010                       # number of WriteReq MSHR misses
system.cpu1.dcache.WriteReq_mshr_misses::total        39010                       # number of WriteReq MSHR misses
system.cpu1.dcache.WriteReq_mshr_miss_latency::.cpu1.data   4056853997                       # number of WriteReq MSHR miss cycles
system.cpu1.dcache.WriteReq_mshr_miss_latency::total   4056853997                       # number of WriteReq MSHR miss cycles
system.cpu1.dcache.WriteReq_mshr_miss_rate::.cpu1.data     0.047222                       # mshr miss rate for WriteReq accesses
system.cpu1.dcache.WriteReq_mshr_miss_rate::total     0.047222                       # mshr miss rate for WriteReq accesses
system.cpu1.dcache.WriteReq_avg_mshr_miss_latency::.cpu1.data 103995.231915                       # average WriteReq mshr miss latency
system.cpu1.dcache.WriteReq_avg_mshr_miss_latency::total 103995.231915                       # average WriteReq mshr miss latency
system.cpu1.dcache.LoadLockedReq_hits::.cpu1.data       555418                       # number of LoadLockedReq hits
system.cpu1.dcache.LoadLockedReq_hits::total       555418                       # number of LoadLockedReq hits
system.cpu1.dcache.LoadLockedReq_misses::.cpu1.data         6427                       # number of LoadLockedReq misses
system.cpu1.dcache.LoadLockedReq_misses::total         6427                       # number of LoadLockedReq misses
system.cpu1.dcache.LoadLockedReq_miss_latency::.cpu1.data    169526000                       # number of LoadLockedReq miss cycles
system.cpu1.dcache.LoadLockedReq_miss_latency::total    169526000                       # number of LoadLockedReq miss cycles
system.cpu1.dcache.LoadLockedReq_accesses::.cpu1.data       561845                       # number of LoadLockedReq accesses(hits+misses)
system.cpu1.dcache.LoadLockedReq_accesses::total       561845                       # number of LoadLockedReq accesses(hits+misses)
system.cpu1.dcache.LoadLockedReq_miss_rate::.cpu1.data     0.011439                       # miss rate for LoadLockedReq accesses
system.cpu1.dcache.LoadLockedReq_miss_rate::total     0.011439                       # miss rate for LoadLockedReq accesses
system.cpu1.dcache.LoadLockedReq_avg_miss_latency::.cpu1.data 26377.158861                       # average LoadLockedReq miss latency
system.cpu1.dcache.LoadLockedReq_avg_miss_latency::total 26377.158861                       # average LoadLockedReq miss latency
system.cpu1.dcache.LoadLockedReq_mshr_hits::.cpu1.data          118                       # number of LoadLockedReq MSHR hits
system.cpu1.dcache.LoadLockedReq_mshr_hits::total          118                       # number of LoadLockedReq MSHR hits
system.cpu1.dcache.LoadLockedReq_mshr_misses::.cpu1.data         6309                       # number of LoadLockedReq MSHR misses
system.cpu1.dcache.LoadLockedReq_mshr_misses::total         6309                       # number of LoadLockedReq MSHR misses
system.cpu1.dcache.LoadLockedReq_mshr_miss_latency::.cpu1.data    153330000                       # number of LoadLockedReq MSHR miss cycles
system.cpu1.dcache.LoadLockedReq_mshr_miss_latency::total    153330000                       # number of LoadLockedReq MSHR miss cycles
system.cpu1.dcache.LoadLockedReq_mshr_miss_rate::.cpu1.data     0.011229                       # mshr miss rate for LoadLockedReq accesses
system.cpu1.dcache.LoadLockedReq_mshr_miss_rate::total     0.011229                       # mshr miss rate for LoadLockedReq accesses
system.cpu1.dcache.LoadLockedReq_avg_mshr_miss_latency::.cpu1.data 24303.376129                       # average LoadLockedReq mshr miss latency
system.cpu1.dcache.LoadLockedReq_avg_mshr_miss_latency::total 24303.376129                       # average LoadLockedReq mshr miss latency
system.cpu1.dcache.StoreCondReq_hits::.cpu1.data       561278                       # number of StoreCondReq hits
system.cpu1.dcache.StoreCondReq_hits::total       561278                       # number of StoreCondReq hits
system.cpu1.dcache.StoreCondReq_misses::.cpu1.data          346                       # number of StoreCondReq misses
system.cpu1.dcache.StoreCondReq_misses::total          346                       # number of StoreCondReq misses
system.cpu1.dcache.StoreCondReq_miss_latency::.cpu1.data      3194000                       # number of StoreCondReq miss cycles
system.cpu1.dcache.StoreCondReq_miss_latency::total      3194000                       # number of StoreCondReq miss cycles
system.cpu1.dcache.StoreCondReq_accesses::.cpu1.data       561624                       # number of StoreCondReq accesses(hits+misses)
system.cpu1.dcache.StoreCondReq_accesses::total       561624                       # number of StoreCondReq accesses(hits+misses)
system.cpu1.dcache.StoreCondReq_miss_rate::.cpu1.data     0.000616                       # miss rate for StoreCondReq accesses
system.cpu1.dcache.StoreCondReq_miss_rate::total     0.000616                       # miss rate for StoreCondReq accesses
system.cpu1.dcache.StoreCondReq_avg_miss_latency::.cpu1.data  9231.213873                       # average StoreCondReq miss latency
system.cpu1.dcache.StoreCondReq_avg_miss_latency::total  9231.213873                       # average StoreCondReq miss latency
system.cpu1.dcache.StoreCondReq_mshr_misses::.cpu1.data          346                       # number of StoreCondReq MSHR misses
system.cpu1.dcache.StoreCondReq_mshr_misses::total          346                       # number of StoreCondReq MSHR misses
system.cpu1.dcache.StoreCondReq_mshr_miss_latency::.cpu1.data      2848000                       # number of StoreCondReq MSHR miss cycles
system.cpu1.dcache.StoreCondReq_mshr_miss_latency::total      2848000                       # number of StoreCondReq MSHR miss cycles
system.cpu1.dcache.StoreCondReq_mshr_miss_rate::.cpu1.data     0.000616                       # mshr miss rate for StoreCondReq accesses
system.cpu1.dcache.StoreCondReq_mshr_miss_rate::total     0.000616                       # mshr miss rate for StoreCondReq accesses
system.cpu1.dcache.StoreCondReq_avg_mshr_miss_latency::.cpu1.data  8231.213873                       # average StoreCondReq mshr miss latency
system.cpu1.dcache.StoreCondReq_avg_mshr_miss_latency::total  8231.213873                       # average StoreCondReq mshr miss latency
system.cpu1.dcache.SwapReq_hits::.cpu1.data          525                       # number of SwapReq hits
system.cpu1.dcache.SwapReq_hits::total            525                       # number of SwapReq hits
system.cpu1.dcache.SwapReq_misses::.cpu1.data          551                       # number of SwapReq misses
system.cpu1.dcache.SwapReq_misses::total          551                       # number of SwapReq misses
system.cpu1.dcache.SwapReq_miss_latency::.cpu1.data     22468000                       # number of SwapReq miss cycles
system.cpu1.dcache.SwapReq_miss_latency::total     22468000                       # number of SwapReq miss cycles
system.cpu1.dcache.SwapReq_accesses::.cpu1.data         1076                       # number of SwapReq accesses(hits+misses)
system.cpu1.dcache.SwapReq_accesses::total         1076                       # number of SwapReq accesses(hits+misses)
system.cpu1.dcache.SwapReq_miss_rate::.cpu1.data     0.512082                       # miss rate for SwapReq accesses
system.cpu1.dcache.SwapReq_miss_rate::total     0.512082                       # miss rate for SwapReq accesses
system.cpu1.dcache.SwapReq_avg_miss_latency::.cpu1.data 40776.769510                       # average SwapReq miss latency
system.cpu1.dcache.SwapReq_avg_miss_latency::total 40776.769510                       # average SwapReq miss latency
system.cpu1.dcache.SwapReq_mshr_misses::.cpu1.data          551                       # number of SwapReq MSHR misses
system.cpu1.dcache.SwapReq_mshr_misses::total          551                       # number of SwapReq MSHR misses
system.cpu1.dcache.SwapReq_mshr_miss_latency::.cpu1.data     21917000                       # number of SwapReq MSHR miss cycles
system.cpu1.dcache.SwapReq_mshr_miss_latency::total     21917000                       # number of SwapReq MSHR miss cycles
system.cpu1.dcache.SwapReq_mshr_miss_rate::.cpu1.data     0.512082                       # mshr miss rate for SwapReq accesses
system.cpu1.dcache.SwapReq_mshr_miss_rate::total     0.512082                       # mshr miss rate for SwapReq accesses
system.cpu1.dcache.SwapReq_avg_mshr_miss_latency::.cpu1.data 39776.769510                       # average SwapReq mshr miss latency
system.cpu1.dcache.SwapReq_avg_mshr_miss_latency::total 39776.769510                       # average SwapReq mshr miss latency
system.cpu1.dcache.tags.pwrStateResidencyTicks::UNDEFINED 123683931500                       # Cumulative time (in ticks) in various power states
system.cpu1.dcache.tags.tagsinuse           31.657142                       # Cycle average of tags in use
system.cpu1.dcache.tags.total_refs           19266088                       # Total number of references to valid blocks.
system.cpu1.dcache.tags.sampled_refs          1085547                       # Sample count of references to valid blocks.
system.cpu1.dcache.tags.avg_refs            17.747816                       # Average number of references to valid blocks.
system.cpu1.dcache.tags.warmup_cycle                0                       # Cycle when the warmup percentage was hit.
system.cpu1.dcache.tags.occ_blocks::.cpu1.data    31.657142                       # Average occupied blocks per requestor
system.cpu1.dcache.tags.occ_percent::.cpu1.data     0.989286                       # Average percentage of cache occupancy
system.cpu1.dcache.tags.occ_percent::total     0.989286                       # Average percentage of cache occupancy
system.cpu1.dcache.tags.occ_task_id_blocks::1024           27                       # Occupied blocks per task id
system.cpu1.dcache.tags.age_task_id_blocks_1024::1            3                       # Occupied blocks per task id
system.cpu1.dcache.tags.age_task_id_blocks_1024::2           24                       # Occupied blocks per task id
system.cpu1.dcache.tags.occ_task_id_percent::1024     0.843750                       # Percentage of cache occupancy per task id
system.cpu1.dcache.tags.tag_accesses         45680916                       # Number of tag accesses
system.cpu1.dcache.tags.data_accesses        45680916                       # Number of data accesses
system.cpu_clk_domain.clock                       500                       # Clock period in ticks
system.tol2bus.pwrStateResidencyTicks::UNDEFINED 123683931500                       # Cumulative time (in ticks) in various power states
system.tol2bus.trans_dist::ReadResp           2995671                       # Transaction distribution
system.tol2bus.trans_dist::WritebackDirty       773721                       # Transaction distribution
system.tol2bus.trans_dist::WritebackClean      2675896                       # Transaction distribution
system.tol2bus.trans_dist::CleanEvict         6294485                       # Transaction distribution
system.tol2bus.trans_dist::HardPFReq          3665739                       # Transaction distribution
system.tol2bus.trans_dist::HardPFResp               1                       # Transaction distribution
system.tol2bus.trans_dist::UpgradeReq            1078                       # Transaction distribution
system.tol2bus.trans_dist::SCUpgradeReq           907                       # Transaction distribution
system.tol2bus.trans_dist::UpgradeResp           1985                       # Transaction distribution
system.tol2bus.trans_dist::ReadExReq           102134                       # Transaction distribution
system.tol2bus.trans_dist::ReadExResp          102134                       # Transaction distribution
system.tol2bus.trans_dist::ReadCleanReq        232378                       # Transaction distribution
system.tol2bus.trans_dist::ReadSharedReq      2763293                       # Transaction distribution
system.tol2bus.trans_dist::InvalidateReq          146                       # Transaction distribution
system.tol2bus.trans_dist::InvalidateResp          146                       # Transaction distribution
system.tol2bus.pkt_count_system.cpu0.icache.mem_side::system.l2.cpu_side       682812                       # Packet count per connected master and slave (bytes)
system.tol2bus.pkt_count_system.cpu0.dcache.mem_side::system.l2.cpu_side      5339347                       # Packet count per connected master and slave (bytes)
system.tol2bus.pkt_count_system.cpu1.icache.mem_side::system.l2.cpu_side        14319                       # Packet count per connected master and slave (bytes)
system.tol2bus.pkt_count_system.cpu1.dcache.mem_side::system.l2.cpu_side      3254640                       # Packet count per connected master and slave (bytes)
system.tol2bus.pkt_count::total               9291118                       # Packet count per connected master and slave (bytes)
system.tol2bus.pkt_size_system.cpu0.icache.mem_side::system.l2.cpu_side     29133248                       # Cumulative packet size per connected master and slave (bytes)
system.tol2bus.pkt_size_system.cpu0.dcache.mem_side::system.l2.cpu_side    227683776                       # Cumulative packet size per connected master and slave (bytes)
system.tol2bus.pkt_size_system.cpu1.icache.mem_side::system.l2.cpu_side       610944                       # Cumulative packet size per connected master and slave (bytes)
system.tol2bus.pkt_size_system.cpu1.dcache.mem_side::system.l2.cpu_side    138764352                       # Cumulative packet size per connected master and slave (bytes)
system.tol2bus.pkt_size::total              396192320                       # Cumulative packet size per connected master and slave (bytes)
system.tol2bus.snoops                        10318597                       # Total snoops (count)
system.tol2bus.snoopTraffic                  22842816                       # Total snoop traffic (bytes)
system.tol2bus.snoop_fanout::samples         13414753                       # Request fanout histogram
system.tol2bus.snoop_fanout::mean            0.186519                       # Request fanout histogram
system.tol2bus.snoop_fanout::stdev           0.397881                       # Request fanout histogram
system.tol2bus.snoop_fanout::underflows             0      0.00%      0.00% # Request fanout histogram
system.tol2bus.snoop_fanout::0               10956788     81.68%     81.68% # Request fanout histogram
system.tol2bus.snoop_fanout::1                2413830     17.99%     99.67% # Request fanout histogram
system.tol2bus.snoop_fanout::2                  44135      0.33%    100.00% # Request fanout histogram
system.tol2bus.snoop_fanout::3                      0      0.00%    100.00% # Request fanout histogram
system.tol2bus.snoop_fanout::4                      0      0.00%    100.00% # Request fanout histogram
system.tol2bus.snoop_fanout::5                      0      0.00%    100.00% # Request fanout histogram
system.tol2bus.snoop_fanout::6                      0      0.00%    100.00% # Request fanout histogram
system.tol2bus.snoop_fanout::7                      0      0.00%    100.00% # Request fanout histogram
system.tol2bus.snoop_fanout::8                      0      0.00%    100.00% # Request fanout histogram
system.tol2bus.snoop_fanout::overflows              0      0.00%    100.00% # Request fanout histogram
system.tol2bus.snoop_fanout::min_value              0                       # Request fanout histogram
system.tol2bus.snoop_fanout::max_value              2                       # Request fanout histogram
system.tol2bus.snoop_fanout::total           13414753                       # Request fanout histogram
system.tol2bus.reqLayer0.occupancy         6193726413                       # Layer occupancy (ticks)
system.tol2bus.reqLayer0.utilization              5.0                       # Layer utilization (%)
system.tol2bus.respLayer1.occupancy        2671474648                       # Layer occupancy (ticks)
system.tol2bus.respLayer1.utilization             2.2                       # Layer utilization (%)
system.tol2bus.respLayer0.occupancy         341487340                       # Layer occupancy (ticks)
system.tol2bus.respLayer0.utilization             0.3                       # Layer utilization (%)
system.tol2bus.respLayer3.occupancy        1629345119                       # Layer occupancy (ticks)
system.tol2bus.respLayer3.utilization             1.3                       # Layer utilization (%)
system.tol2bus.respLayer2.occupancy           7198422                       # Layer occupancy (ticks)
system.tol2bus.respLayer2.utilization             0.0                       # Layer utilization (%)
system.tol2bus.snoopLayer0.occupancy             1501                       # Layer occupancy (ticks)
system.tol2bus.snoopLayer0.utilization            0.0                       # Layer utilization (%)

---------- End Simulation Statistics   ----------
