
---------- Begin Simulation Statistics ----------
final_tick                               490918774500                       # Number of ticks from beginning of simulation (restored from checkpoints and never reset)
host_inst_rate                                 101791                       # Simulator instruction rate (inst/s)
host_mem_usage                                 739080                       # Number of bytes of host memory used
host_op_rate                                   102129                       # Simulator op (including micro ops) rate (op/s)
host_seconds                                  6026.03                       # Real time elapsed on the host
host_tick_rate                               81466336                       # Simulator tick rate (ticks/s)
sim_freq                                 1000000000000                       # Frequency of simulated ticks
sim_insts                                   613396612                       # Number of instructions simulated
sim_ops                                     615435386                       # Number of ops (including micro ops) simulated
sim_seconds                                  0.490919                       # Number of seconds simulated
sim_ticks                                490918774500                       # Number of ticks simulated
system.cpu0.branchPred.BTBCorrect                   0                       # Number of correct BTB predictions (this stat may not work properly.
system.cpu0.branchPred.BTBHitPct            86.819143                       # BTB Hit Percentage
system.cpu0.branchPred.BTBHits               78697234                       # Number of BTB hits
system.cpu0.branchPred.BTBLookups            90645025                       # Number of BTB lookups
system.cpu0.branchPred.RASInCorrect                 0                       # Number of incorrect RAS predictions.
system.cpu0.branchPred.condIncorrect          9042867                       # Number of conditional branches incorrect
system.cpu0.branchPred.condPredicted        121683498                       # Number of conditional branches predicted
system.cpu0.branchPred.indirectHits          11660757                       # Number of indirect target hits.
system.cpu0.branchPred.indirectLookups       11797263                       # Number of indirect predictor lookups.
system.cpu0.branchPred.indirectMisses          136506                       # Number of indirect misses.
system.cpu0.branchPred.lookups              157708683                       # Number of BP lookups
system.cpu0.branchPred.usedRAS                      0                       # Number of times the RAS was used to get a target.
system.cpu0.branchPredindirectMispredicted      1053093                       # Number of mispredicted indirect branches.
system.cpu0.commit.amos                        509398                       # Number of atomic instructions committed
system.cpu0.commit.branchMispredicts          5867549                       # The number of times a branch was mispredicted
system.cpu0.commit.branches                 138967169                       # Number of branches committed
system.cpu0.commit.bw_lim_events             17391960                       # number cycles where commit BW limit reached
system.cpu0.commit.commitNonSpecStalls        1532351                       # The number of times commit has been forced to stall to communicate backwards
system.cpu0.commit.commitSquashedInsts       63108122                       # The number of squashed insts skipped by commit
system.cpu0.commit.committedInsts           561788983                       # Number of instructions committed
system.cpu0.commit.committedOps             562299643                       # Number of ops (including micro ops) committed
system.cpu0.commit.committed_per_cycle::samples    888720376                       # Number of insts commited each cycle
system.cpu0.commit.committed_per_cycle::mean     0.632707                       # Number of insts commited each cycle
system.cpu0.commit.committed_per_cycle::stdev     1.428672                       # Number of insts commited each cycle
system.cpu0.commit.committed_per_cycle::underflows            0      0.00%      0.00% # Number of insts commited each cycle
system.cpu0.commit.committed_per_cycle::0    624866801     70.31%     70.31% # Number of insts commited each cycle
system.cpu0.commit.committed_per_cycle::1    156443367     17.60%     87.91% # Number of insts commited each cycle
system.cpu0.commit.committed_per_cycle::2     35830418      4.03%     91.95% # Number of insts commited each cycle
system.cpu0.commit.committed_per_cycle::3     34822018      3.92%     95.86% # Number of insts commited each cycle
system.cpu0.commit.committed_per_cycle::4     11718548      1.32%     97.18% # Number of insts commited each cycle
system.cpu0.commit.committed_per_cycle::5      4413659      0.50%     97.68% # Number of insts commited each cycle
system.cpu0.commit.committed_per_cycle::6       984016      0.11%     97.79% # Number of insts commited each cycle
system.cpu0.commit.committed_per_cycle::7      2249589      0.25%     98.04% # Number of insts commited each cycle
system.cpu0.commit.committed_per_cycle::8     17391960      1.96%    100.00% # Number of insts commited each cycle
system.cpu0.commit.committed_per_cycle::overflows            0      0.00%    100.00% # Number of insts commited each cycle
system.cpu0.commit.committed_per_cycle::min_value            0                       # Number of insts commited each cycle
system.cpu0.commit.committed_per_cycle::max_value            8                       # Number of insts commited each cycle
system.cpu0.commit.committed_per_cycle::total    888720376                       # Number of insts commited each cycle
system.cpu0.commit.fp_insts                        50                       # Number of committed floating point instructions.
system.cpu0.commit.function_calls            11672162                       # Number of function calls committed.
system.cpu0.commit.int_insts                543437192                       # Number of committed integer instructions.
system.cpu0.commit.loads                    174758233                       # Number of loads committed
system.cpu0.commit.membars                    1019937                       # Number of memory barriers committed
system.cpu0.commit.op_class_0::No_OpClass      1019943      0.18%      0.18% # Class of committed instruction
system.cpu0.commit.op_class_0::IntAlu       311043536     55.32%     55.50% # Class of committed instruction
system.cpu0.commit.op_class_0::IntMult        4137156      0.74%     56.23% # Class of committed instruction
system.cpu0.commit.op_class_0::IntDiv         1017773      0.18%     56.41% # Class of committed instruction
system.cpu0.commit.op_class_0::FloatAdd             0      0.00%     56.41% # Class of committed instruction
system.cpu0.commit.op_class_0::FloatCmp             4      0.00%     56.41% # Class of committed instruction
system.cpu0.commit.op_class_0::FloatCvt            12      0.00%     56.41% # Class of committed instruction
system.cpu0.commit.op_class_0::FloatMult            0      0.00%     56.41% # Class of committed instruction
system.cpu0.commit.op_class_0::FloatMultAcc            0      0.00%     56.41% # Class of committed instruction
system.cpu0.commit.op_class_0::FloatDiv             2      0.00%     56.41% # Class of committed instruction
system.cpu0.commit.op_class_0::FloatMisc            4      0.00%     56.41% # Class of committed instruction
system.cpu0.commit.op_class_0::FloatSqrt            0      0.00%     56.41% # Class of committed instruction
system.cpu0.commit.op_class_0::SimdAdd              0      0.00%     56.41% # Class of committed instruction
system.cpu0.commit.op_class_0::SimdAddAcc            0      0.00%     56.41% # Class of committed instruction
system.cpu0.commit.op_class_0::SimdAlu              0      0.00%     56.41% # Class of committed instruction
system.cpu0.commit.op_class_0::SimdCmp              0      0.00%     56.41% # Class of committed instruction
system.cpu0.commit.op_class_0::SimdCvt              0      0.00%     56.41% # Class of committed instruction
system.cpu0.commit.op_class_0::SimdMisc             0      0.00%     56.41% # Class of committed instruction
system.cpu0.commit.op_class_0::SimdMult             0      0.00%     56.41% # Class of committed instruction
system.cpu0.commit.op_class_0::SimdMultAcc            0      0.00%     56.41% # Class of committed instruction
system.cpu0.commit.op_class_0::SimdShift            0      0.00%     56.41% # Class of committed instruction
system.cpu0.commit.op_class_0::SimdShiftAcc            0      0.00%     56.41% # Class of committed instruction
system.cpu0.commit.op_class_0::SimdDiv              0      0.00%     56.41% # Class of committed instruction
system.cpu0.commit.op_class_0::SimdSqrt             0      0.00%     56.41% # Class of committed instruction
system.cpu0.commit.op_class_0::SimdFloatAdd            0      0.00%     56.41% # Class of committed instruction
system.cpu0.commit.op_class_0::SimdFloatAlu            0      0.00%     56.41% # Class of committed instruction
system.cpu0.commit.op_class_0::SimdFloatCmp            0      0.00%     56.41% # Class of committed instruction
system.cpu0.commit.op_class_0::SimdFloatCvt            0      0.00%     56.41% # Class of committed instruction
system.cpu0.commit.op_class_0::SimdFloatDiv            0      0.00%     56.41% # Class of committed instruction
system.cpu0.commit.op_class_0::SimdFloatMisc            0      0.00%     56.41% # Class of committed instruction
system.cpu0.commit.op_class_0::SimdFloatMult            0      0.00%     56.41% # Class of committed instruction
system.cpu0.commit.op_class_0::SimdFloatMultAcc            0      0.00%     56.41% # Class of committed instruction
system.cpu0.commit.op_class_0::SimdFloatSqrt            0      0.00%     56.41% # Class of committed instruction
system.cpu0.commit.op_class_0::SimdReduceAdd            0      0.00%     56.41% # Class of committed instruction
system.cpu0.commit.op_class_0::SimdReduceAlu            0      0.00%     56.41% # Class of committed instruction
system.cpu0.commit.op_class_0::SimdReduceCmp            0      0.00%     56.41% # Class of committed instruction
system.cpu0.commit.op_class_0::SimdFloatReduceAdd            0      0.00%     56.41% # Class of committed instruction
system.cpu0.commit.op_class_0::SimdFloatReduceCmp            0      0.00%     56.41% # Class of committed instruction
system.cpu0.commit.op_class_0::SimdAes              0      0.00%     56.41% # Class of committed instruction
system.cpu0.commit.op_class_0::SimdAesMix            0      0.00%     56.41% # Class of committed instruction
system.cpu0.commit.op_class_0::SimdSha1Hash            0      0.00%     56.41% # Class of committed instruction
system.cpu0.commit.op_class_0::SimdSha1Hash2            0      0.00%     56.41% # Class of committed instruction
system.cpu0.commit.op_class_0::SimdSha256Hash            0      0.00%     56.41% # Class of committed instruction
system.cpu0.commit.op_class_0::SimdSha256Hash2            0      0.00%     56.41% # Class of committed instruction
system.cpu0.commit.op_class_0::SimdShaSigma2            0      0.00%     56.41% # Class of committed instruction
system.cpu0.commit.op_class_0::SimdShaSigma3            0      0.00%     56.41% # Class of committed instruction
system.cpu0.commit.op_class_0::SimdPredAlu            0      0.00%     56.41% # Class of committed instruction
system.cpu0.commit.op_class_0::MemRead      175267623     31.17%     87.58% # Class of committed instruction
system.cpu0.commit.op_class_0::MemWrite      69813562     12.42%    100.00% # Class of committed instruction
system.cpu0.commit.op_class_0::FloatMemRead            8      0.00%    100.00% # Class of committed instruction
system.cpu0.commit.op_class_0::FloatMemWrite           20      0.00%    100.00% # Class of committed instruction
system.cpu0.commit.op_class_0::IprAccess            0      0.00%    100.00% # Class of committed instruction
system.cpu0.commit.op_class_0::InstPrefetch            0      0.00%    100.00% # Class of committed instruction
system.cpu0.commit.op_class_0::total        562299643                       # Class of committed instruction
system.cpu0.commit.refs                     245081213                       # Number of memory references committed
system.cpu0.commit.swp_count                        0                       # Number of s/w prefetches committed
system.cpu0.commit.vec_insts                        0                       # Number of committed Vector instructions.
system.cpu0.committedInsts                  561788983                       # Number of Instructions Simulated
system.cpu0.committedOps                    562299643                       # Number of Ops (including micro ops) Simulated
system.cpu0.cpi                              1.723862                       # CPI: Cycles Per Instruction
system.cpu0.cpi_total                        1.723862                       # CPI: Total CPI of All Threads
system.cpu0.decode.BlockedCycles            100742597                       # Number of cycles decode is blocked
system.cpu0.decode.BranchMispred              3178900                       # Number of times decode detected a branch misprediction
system.cpu0.decode.BranchResolved            76598063                       # Number of times decode resolved a branch
system.cpu0.decode.DecodedInsts             639079983                       # Number of instructions handled by decode
system.cpu0.decode.IdleCycles               350283424                       # Number of cycles decode is idle
system.cpu0.decode.RunCycles                441113842                       # Number of cycles decode is running
system.cpu0.decode.SquashCycles               5872641                       # Number of cycles decode is squashing
system.cpu0.decode.SquashedInsts              9713778                       # Number of squashed instructions handled by decode
system.cpu0.decode.UnblockCycles              2635409                       # Number of cycles decode is unblocking
system.cpu0.dtb.accesses                            0                       # DTB accesses
system.cpu0.dtb.hits                                0                       # DTB hits
system.cpu0.dtb.misses                              0                       # DTB misses
system.cpu0.dtb.read_accesses                       0                       # DTB read accesses
system.cpu0.dtb.read_hits                           0                       # DTB read hits
system.cpu0.dtb.read_misses                         0                       # DTB read misses
system.cpu0.dtb.write_accesses                      0                       # DTB write accesses
system.cpu0.dtb.write_hits                          0                       # DTB write hits
system.cpu0.dtb.write_misses                        0                       # DTB write misses
system.cpu0.fetch.Branches                  157708683                       # Number of branches that fetch encountered
system.cpu0.fetch.CacheLines                104443173                       # Number of cache lines fetched
system.cpu0.fetch.Cycles                    549705114                       # Number of cycles fetch has run and was not squashing or blocked
system.cpu0.fetch.IcacheSquashes              2940991                       # Number of outstanding Icache misses that were squashed
system.cpu0.fetch.IcacheWaitRetryStallCycles          119                       # Number of stall cycles due to full MSHR
system.cpu0.fetch.Insts                     662027076                       # Number of instructions fetch has processed
system.cpu0.fetch.MiscStallCycles                  34                       # Number of cycles fetch has spent waiting on interrupts, or bad addresses, or out of MSHRs
system.cpu0.fetch.PendingTrapStallCycles          139                       # Number of stall cycles due to pending traps
system.cpu0.fetch.SquashCycles               18095962                       # Number of cycles fetch has spent squashing
system.cpu0.fetch.branchRate                 0.162847                       # Number of branch fetches per cycle
system.cpu0.fetch.icacheStallCycles         341894526                       # Number of cycles fetch is stalled on an Icache miss
system.cpu0.fetch.predictedBranches          90357991                       # Number of branches that fetch has predicted taken
system.cpu0.fetch.rate                       0.683597                       # Number of inst fetches per cycle
system.cpu0.fetch.rateDist::samples         900647913                       # Number of instructions fetched each cycle (Total)
system.cpu0.fetch.rateDist::mean             0.736596                       # Number of instructions fetched each cycle (Total)
system.cpu0.fetch.rateDist::stdev            0.947071                       # Number of instructions fetched each cycle (Total)
system.cpu0.fetch.rateDist::underflows              0      0.00%      0.00% # Number of instructions fetched each cycle (Total)
system.cpu0.fetch.rateDist::0               438341435     48.67%     48.67% # Number of instructions fetched each cycle (Total)
system.cpu0.fetch.rateDist::1               341139557     37.88%     86.55% # Number of instructions fetched each cycle (Total)
system.cpu0.fetch.rateDist::2                62834529      6.98%     93.52% # Number of instructions fetched each cycle (Total)
system.cpu0.fetch.rateDist::3                43964633      4.88%     98.40% # Number of instructions fetched each cycle (Total)
system.cpu0.fetch.rateDist::4                10711041      1.19%     99.59% # Number of instructions fetched each cycle (Total)
system.cpu0.fetch.rateDist::5                 2114814      0.23%     99.83% # Number of instructions fetched each cycle (Total)
system.cpu0.fetch.rateDist::6                  520843      0.06%     99.89% # Number of instructions fetched each cycle (Total)
system.cpu0.fetch.rateDist::7                     448      0.00%     99.89% # Number of instructions fetched each cycle (Total)
system.cpu0.fetch.rateDist::8                 1020613      0.11%    100.00% # Number of instructions fetched each cycle (Total)
system.cpu0.fetch.rateDist::overflows               0      0.00%    100.00% # Number of instructions fetched each cycle (Total)
system.cpu0.fetch.rateDist::min_value               0                       # Number of instructions fetched each cycle (Total)
system.cpu0.fetch.rateDist::max_value               8                       # Number of instructions fetched each cycle (Total)
system.cpu0.fetch.rateDist::total           900647913                       # Number of instructions fetched each cycle (Total)
system.cpu0.fp_regfile_reads                       44                       # number of floating regfile reads
system.cpu0.fp_regfile_writes                      23                       # number of floating regfile writes
system.cpu0.idleCycles                       67798672                       # Total number of cycles that the CPU has spent unscheduled due to idling
system.cpu0.iew.branchMispredicts             5976694                       # Number of branch mispredicts detected at execute
system.cpu0.iew.exec_branches               147175020                       # Number of branches executed
system.cpu0.iew.exec_nop                            0                       # number of nop insts executed
system.cpu0.iew.exec_rate                    0.633246                       # Inst execution rate
system.cpu0.iew.exec_refs                   275574997                       # number of memory reference insts executed
system.cpu0.iew.exec_stores                  77614967                       # Number of stores executed
system.cpu0.iew.exec_swp                            0                       # number of swp insts executed
system.cpu0.iew.iewBlockCycles               80625752                       # Number of cycles IEW is blocking
system.cpu0.iew.iewDispLoadInsts            200094149                       # Number of dispatched load instructions
system.cpu0.iew.iewDispNonSpecInsts           1016732                       # Number of dispatched non-speculative instructions
system.cpu0.iew.iewDispSquashedInsts          2844800                       # Number of squashed instructions skipped by dispatch
system.cpu0.iew.iewDispStoreInsts            79640062                       # Number of dispatched store instructions
system.cpu0.iew.iewDispatchedInsts          625392741                       # Number of instructions dispatched to IQ
system.cpu0.iew.iewExecLoadInsts            197960030                       # Number of load instructions executed
system.cpu0.iew.iewExecSquashedInsts          3931455                       # Number of squashed instructions skipped in execute
system.cpu0.iew.iewExecutedInsts            613264763                       # Number of executed instructions
system.cpu0.iew.iewIQFullEvents                510161                       # Number of times the IQ has become full, causing a stall
system.cpu0.iew.iewIdleCycles                       0                       # Number of cycles IEW is idle
system.cpu0.iew.iewLSQFullEvents              2065691                       # Number of times the LSQ has become full, causing a stall
system.cpu0.iew.iewSquashCycles               5872641                       # Number of cycles IEW is squashing
system.cpu0.iew.iewUnblockCycles              3162739                       # Number of cycles IEW is unblocking
system.cpu0.iew.lsq.thread0.blockedLoads            0                       # Number of blocked loads due to partial load-store forwarding
system.cpu0.iew.lsq.thread0.cacheBlocked        80563                       # Number of times an access to memory failed due to the cache being blocked
system.cpu0.iew.lsq.thread0.forwLoads         9488122                       # Number of loads that had data forwarded from stores
system.cpu0.iew.lsq.thread0.ignoredResponses        30851                       # Number of memory responses ignored because the instruction is squashed
system.cpu0.iew.lsq.thread0.invAddrLoads            0                       # Number of loads ignored due to an invalid address
system.cpu0.iew.lsq.thread0.invAddrSwpfs            0                       # Number of software prefetches ignored due to an invalid address
system.cpu0.iew.lsq.thread0.memOrderViolation         5512                       # Number of memory ordering violations
system.cpu0.iew.lsq.thread0.rescheduledLoads      3527697                       # Number of loads that were rescheduled
system.cpu0.iew.lsq.thread0.squashedLoads     25335916                       # Number of loads squashed
system.cpu0.iew.lsq.thread0.squashedStores      9317082                       # Number of stores squashed
system.cpu0.iew.memOrderViolationEvents          5512                       # Number of memory order violations
system.cpu0.iew.predictedNotTakenIncorrect       825729                       # Number of branches that were predicted not taken incorrectly
system.cpu0.iew.predictedTakenIncorrect       5150965                       # Number of branches that were predicted taken incorrectly
system.cpu0.iew.wb_consumers                272489774                       # num instructions consuming a value
system.cpu0.iew.wb_count                    606679311                       # cumulative count of insts written-back
system.cpu0.iew.wb_fanout                    0.836304                       # average fanout of values written-back
system.cpu0.iew.wb_producers                227884245                       # num instructions producing a value
system.cpu0.iew.wb_rate                      0.626446                       # insts written-back per cycle
system.cpu0.iew.wb_sent                     606783660                       # cumulative count of insts sent to commit
system.cpu0.int_regfile_reads               746648077                       # number of integer regfile reads
system.cpu0.int_regfile_writes              387640795                       # number of integer regfile writes
system.cpu0.ipc                              0.580093                       # IPC: Instructions Per Cycle
system.cpu0.ipc_total                        0.580093                       # IPC: Total IPC of All Threads
system.cpu0.iq.FU_type_0::No_OpClass          1020974      0.17%      0.17% # Type of FU issued
system.cpu0.iq.FU_type_0::IntAlu            333705000     54.07%     54.23% # Type of FU issued
system.cpu0.iq.FU_type_0::IntMult             4213223      0.68%     54.92% # Type of FU issued
system.cpu0.iq.FU_type_0::IntDiv              1018063      0.16%     55.08% # Type of FU issued
system.cpu0.iq.FU_type_0::FloatAdd                  0      0.00%     55.08% # Type of FU issued
system.cpu0.iq.FU_type_0::FloatCmp                  4      0.00%     55.08% # Type of FU issued
system.cpu0.iq.FU_type_0::FloatCvt                 12      0.00%     55.08% # Type of FU issued
system.cpu0.iq.FU_type_0::FloatMult                 0      0.00%     55.08% # Type of FU issued
system.cpu0.iq.FU_type_0::FloatMultAcc              0      0.00%     55.08% # Type of FU issued
system.cpu0.iq.FU_type_0::FloatDiv                  2      0.00%     55.08% # Type of FU issued
system.cpu0.iq.FU_type_0::FloatMisc                 4      0.00%     55.08% # Type of FU issued
system.cpu0.iq.FU_type_0::FloatSqrt                 0      0.00%     55.08% # Type of FU issued
system.cpu0.iq.FU_type_0::SimdAdd                   0      0.00%     55.08% # Type of FU issued
system.cpu0.iq.FU_type_0::SimdAddAcc                0      0.00%     55.08% # Type of FU issued
system.cpu0.iq.FU_type_0::SimdAlu                   0      0.00%     55.08% # Type of FU issued
system.cpu0.iq.FU_type_0::SimdCmp                   0      0.00%     55.08% # Type of FU issued
system.cpu0.iq.FU_type_0::SimdCvt                   0      0.00%     55.08% # Type of FU issued
system.cpu0.iq.FU_type_0::SimdMisc                  0      0.00%     55.08% # Type of FU issued
system.cpu0.iq.FU_type_0::SimdMult                  0      0.00%     55.08% # Type of FU issued
system.cpu0.iq.FU_type_0::SimdMultAcc               0      0.00%     55.08% # Type of FU issued
system.cpu0.iq.FU_type_0::SimdShift                 0      0.00%     55.08% # Type of FU issued
system.cpu0.iq.FU_type_0::SimdShiftAcc              0      0.00%     55.08% # Type of FU issued
system.cpu0.iq.FU_type_0::SimdDiv                   0      0.00%     55.08% # Type of FU issued
system.cpu0.iq.FU_type_0::SimdSqrt                  0      0.00%     55.08% # Type of FU issued
system.cpu0.iq.FU_type_0::SimdFloatAdd              0      0.00%     55.08% # Type of FU issued
system.cpu0.iq.FU_type_0::SimdFloatAlu              0      0.00%     55.08% # Type of FU issued
system.cpu0.iq.FU_type_0::SimdFloatCmp              0      0.00%     55.08% # Type of FU issued
system.cpu0.iq.FU_type_0::SimdFloatCvt              0      0.00%     55.08% # Type of FU issued
system.cpu0.iq.FU_type_0::SimdFloatDiv              0      0.00%     55.08% # Type of FU issued
system.cpu0.iq.FU_type_0::SimdFloatMisc             0      0.00%     55.08% # Type of FU issued
system.cpu0.iq.FU_type_0::SimdFloatMult             0      0.00%     55.08% # Type of FU issued
system.cpu0.iq.FU_type_0::SimdFloatMultAcc            0      0.00%     55.08% # Type of FU issued
system.cpu0.iq.FU_type_0::SimdFloatSqrt             0      0.00%     55.08% # Type of FU issued
system.cpu0.iq.FU_type_0::SimdReduceAdd             0      0.00%     55.08% # Type of FU issued
system.cpu0.iq.FU_type_0::SimdReduceAlu             0      0.00%     55.08% # Type of FU issued
system.cpu0.iq.FU_type_0::SimdReduceCmp             0      0.00%     55.08% # Type of FU issued
system.cpu0.iq.FU_type_0::SimdFloatReduceAdd            0      0.00%     55.08% # Type of FU issued
system.cpu0.iq.FU_type_0::SimdFloatReduceCmp            0      0.00%     55.08% # Type of FU issued
system.cpu0.iq.FU_type_0::SimdAes                   0      0.00%     55.08% # Type of FU issued
system.cpu0.iq.FU_type_0::SimdAesMix                0      0.00%     55.08% # Type of FU issued
system.cpu0.iq.FU_type_0::SimdSha1Hash              0      0.00%     55.08% # Type of FU issued
system.cpu0.iq.FU_type_0::SimdSha1Hash2             0      0.00%     55.08% # Type of FU issued
system.cpu0.iq.FU_type_0::SimdSha256Hash            0      0.00%     55.08% # Type of FU issued
system.cpu0.iq.FU_type_0::SimdSha256Hash2            0      0.00%     55.08% # Type of FU issued
system.cpu0.iq.FU_type_0::SimdShaSigma2             0      0.00%     55.08% # Type of FU issued
system.cpu0.iq.FU_type_0::SimdShaSigma3             0      0.00%     55.08% # Type of FU issued
system.cpu0.iq.FU_type_0::SimdPredAlu               0      0.00%     55.08% # Type of FU issued
system.cpu0.iq.FU_type_0::MemRead           199736408     32.36%     87.44% # Type of FU issued
system.cpu0.iq.FU_type_0::MemWrite           77502499     12.56%    100.00% # Type of FU issued
system.cpu0.iq.FU_type_0::FloatMemRead              9      0.00%    100.00% # Type of FU issued
system.cpu0.iq.FU_type_0::FloatMemWrite            20      0.00%    100.00% # Type of FU issued
system.cpu0.iq.FU_type_0::IprAccess                 0      0.00%    100.00% # Type of FU issued
system.cpu0.iq.FU_type_0::InstPrefetch              0      0.00%    100.00% # Type of FU issued
system.cpu0.iq.FU_type_0::total             617196218                       # Type of FU issued
system.cpu0.iq.fp_alu_accesses                     55                       # Number of floating point alu accesses
system.cpu0.iq.fp_inst_queue_reads                106                       # Number of floating instruction queue reads
system.cpu0.iq.fp_inst_queue_wakeup_accesses           51                       # Number of floating instruction queue wakeup accesses
system.cpu0.iq.fp_inst_queue_writes                52                       # Number of floating instruction queue writes
system.cpu0.iq.fu_busy_cnt                     763980                       # FU busy when requested
system.cpu0.iq.fu_busy_rate                  0.001238                       # FU busy rate (busy events/executed inst)
system.cpu0.iq.fu_full::No_OpClass                  0      0.00%      0.00% # attempts to use FU when none available
system.cpu0.iq.fu_full::IntAlu                 147872     19.36%     19.36% # attempts to use FU when none available
system.cpu0.iq.fu_full::IntMult                     2      0.00%     19.36% # attempts to use FU when none available
system.cpu0.iq.fu_full::IntDiv                      0      0.00%     19.36% # attempts to use FU when none available
system.cpu0.iq.fu_full::FloatAdd                    0      0.00%     19.36% # attempts to use FU when none available
system.cpu0.iq.fu_full::FloatCmp                    0      0.00%     19.36% # attempts to use FU when none available
system.cpu0.iq.fu_full::FloatCvt                    0      0.00%     19.36% # attempts to use FU when none available
system.cpu0.iq.fu_full::FloatMult                   0      0.00%     19.36% # attempts to use FU when none available
system.cpu0.iq.fu_full::FloatMultAcc                0      0.00%     19.36% # attempts to use FU when none available
system.cpu0.iq.fu_full::FloatDiv                    0      0.00%     19.36% # attempts to use FU when none available
system.cpu0.iq.fu_full::FloatMisc                   0      0.00%     19.36% # attempts to use FU when none available
system.cpu0.iq.fu_full::FloatSqrt                   0      0.00%     19.36% # attempts to use FU when none available
system.cpu0.iq.fu_full::SimdAdd                     0      0.00%     19.36% # attempts to use FU when none available
system.cpu0.iq.fu_full::SimdAddAcc                  0      0.00%     19.36% # attempts to use FU when none available
system.cpu0.iq.fu_full::SimdAlu                     0      0.00%     19.36% # attempts to use FU when none available
system.cpu0.iq.fu_full::SimdCmp                     0      0.00%     19.36% # attempts to use FU when none available
system.cpu0.iq.fu_full::SimdCvt                     0      0.00%     19.36% # attempts to use FU when none available
system.cpu0.iq.fu_full::SimdMisc                    0      0.00%     19.36% # attempts to use FU when none available
system.cpu0.iq.fu_full::SimdMult                    0      0.00%     19.36% # attempts to use FU when none available
system.cpu0.iq.fu_full::SimdMultAcc                 0      0.00%     19.36% # attempts to use FU when none available
system.cpu0.iq.fu_full::SimdShift                   0      0.00%     19.36% # attempts to use FU when none available
system.cpu0.iq.fu_full::SimdShiftAcc                0      0.00%     19.36% # attempts to use FU when none available
system.cpu0.iq.fu_full::SimdDiv                     0      0.00%     19.36% # attempts to use FU when none available
system.cpu0.iq.fu_full::SimdSqrt                    0      0.00%     19.36% # attempts to use FU when none available
system.cpu0.iq.fu_full::SimdFloatAdd                0      0.00%     19.36% # attempts to use FU when none available
system.cpu0.iq.fu_full::SimdFloatAlu                0      0.00%     19.36% # attempts to use FU when none available
system.cpu0.iq.fu_full::SimdFloatCmp                0      0.00%     19.36% # attempts to use FU when none available
system.cpu0.iq.fu_full::SimdFloatCvt                0      0.00%     19.36% # attempts to use FU when none available
system.cpu0.iq.fu_full::SimdFloatDiv                0      0.00%     19.36% # attempts to use FU when none available
system.cpu0.iq.fu_full::SimdFloatMisc               0      0.00%     19.36% # attempts to use FU when none available
system.cpu0.iq.fu_full::SimdFloatMult               0      0.00%     19.36% # attempts to use FU when none available
system.cpu0.iq.fu_full::SimdFloatMultAcc            0      0.00%     19.36% # attempts to use FU when none available
system.cpu0.iq.fu_full::SimdFloatSqrt               0      0.00%     19.36% # attempts to use FU when none available
system.cpu0.iq.fu_full::SimdReduceAdd               0      0.00%     19.36% # attempts to use FU when none available
system.cpu0.iq.fu_full::SimdReduceAlu               0      0.00%     19.36% # attempts to use FU when none available
system.cpu0.iq.fu_full::SimdReduceCmp               0      0.00%     19.36% # attempts to use FU when none available
system.cpu0.iq.fu_full::SimdFloatReduceAdd            0      0.00%     19.36% # attempts to use FU when none available
system.cpu0.iq.fu_full::SimdFloatReduceCmp            0      0.00%     19.36% # attempts to use FU when none available
system.cpu0.iq.fu_full::SimdAes                     0      0.00%     19.36% # attempts to use FU when none available
system.cpu0.iq.fu_full::SimdAesMix                  0      0.00%     19.36% # attempts to use FU when none available
system.cpu0.iq.fu_full::SimdSha1Hash                0      0.00%     19.36% # attempts to use FU when none available
system.cpu0.iq.fu_full::SimdSha1Hash2               0      0.00%     19.36% # attempts to use FU when none available
system.cpu0.iq.fu_full::SimdSha256Hash              0      0.00%     19.36% # attempts to use FU when none available
system.cpu0.iq.fu_full::SimdSha256Hash2             0      0.00%     19.36% # attempts to use FU when none available
system.cpu0.iq.fu_full::SimdShaSigma2               0      0.00%     19.36% # attempts to use FU when none available
system.cpu0.iq.fu_full::SimdShaSigma3               0      0.00%     19.36% # attempts to use FU when none available
system.cpu0.iq.fu_full::SimdPredAlu                 0      0.00%     19.36% # attempts to use FU when none available
system.cpu0.iq.fu_full::MemRead                518340     67.85%     87.20% # attempts to use FU when none available
system.cpu0.iq.fu_full::MemWrite                97762     12.80%    100.00% # attempts to use FU when none available
system.cpu0.iq.fu_full::FloatMemRead                0      0.00%    100.00% # attempts to use FU when none available
system.cpu0.iq.fu_full::FloatMemWrite               4      0.00%    100.00% # attempts to use FU when none available
system.cpu0.iq.fu_full::IprAccess                   0      0.00%    100.00% # attempts to use FU when none available
system.cpu0.iq.fu_full::InstPrefetch                0      0.00%    100.00% # attempts to use FU when none available
system.cpu0.iq.int_alu_accesses             616939169                       # Number of integer alu accesses
system.cpu0.iq.int_inst_queue_reads        2135868605                       # Number of integer instruction queue reads
system.cpu0.iq.int_inst_queue_wakeup_accesses    606679260                       # Number of integer instruction queue wakeup accesses
system.cpu0.iq.int_inst_queue_writes        688490550                       # Number of integer instruction queue writes
system.cpu0.iq.iqInstsAdded                 622347718                       # Number of instructions added to the IQ (excludes non-spec)
system.cpu0.iq.iqInstsIssued                617196218                       # Number of instructions issued
system.cpu0.iq.iqNonSpecInstsAdded            3045023                       # Number of non-speculative instructions added to the IQ
system.cpu0.iq.iqSquashedInstsExamined       63093095                       # Number of squashed instructions iterated over during squash; mainly for profiling
system.cpu0.iq.iqSquashedInstsIssued            64382                       # Number of squashed instructions issued
system.cpu0.iq.iqSquashedNonSpecRemoved       1512672                       # Number of squashed non-spec instructions that were removed
system.cpu0.iq.iqSquashedOperandsExamined     18921414                       # Number of squashed operands that are examined and possibly removed from graph
system.cpu0.iq.issued_per_cycle::samples    900647913                       # Number of insts issued each cycle
system.cpu0.iq.issued_per_cycle::mean        0.685280                       # Number of insts issued each cycle
system.cpu0.iq.issued_per_cycle::stdev       0.870001                       # Number of insts issued each cycle
system.cpu0.iq.issued_per_cycle::underflows            0      0.00%      0.00% # Number of insts issued each cycle
system.cpu0.iq.issued_per_cycle::0          471145904     52.31%     52.31% # Number of insts issued each cycle
system.cpu0.iq.issued_per_cycle::1          287568820     31.93%     84.24% # Number of insts issued each cycle
system.cpu0.iq.issued_per_cycle::2          104095525     11.56%     95.80% # Number of insts issued each cycle
system.cpu0.iq.issued_per_cycle::3           31367689      3.48%     99.28% # Number of insts issued each cycle
system.cpu0.iq.issued_per_cycle::4            5657265      0.63%     99.91% # Number of insts issued each cycle
system.cpu0.iq.issued_per_cycle::5             366062      0.04%     99.95% # Number of insts issued each cycle
system.cpu0.iq.issued_per_cycle::6             314637      0.03%     99.99% # Number of insts issued each cycle
system.cpu0.iq.issued_per_cycle::7              69999      0.01%     99.99% # Number of insts issued each cycle
system.cpu0.iq.issued_per_cycle::8              62012      0.01%    100.00% # Number of insts issued each cycle
system.cpu0.iq.issued_per_cycle::overflows            0      0.00%    100.00% # Number of insts issued each cycle
system.cpu0.iq.issued_per_cycle::min_value            0                       # Number of insts issued each cycle
system.cpu0.iq.issued_per_cycle::max_value            8                       # Number of insts issued each cycle
system.cpu0.iq.issued_per_cycle::total      900647913                       # Number of insts issued each cycle
system.cpu0.iq.rate                          0.637305                       # Inst issue rate
system.cpu0.iq.vec_alu_accesses                     0                       # Number of vector alu accesses
system.cpu0.iq.vec_inst_queue_reads                 0                       # Number of vector instruction queue reads
system.cpu0.iq.vec_inst_queue_wakeup_accesses            0                       # Number of vector instruction queue wakeup accesses
system.cpu0.iq.vec_inst_queue_writes                0                       # Number of vector instruction queue writes
system.cpu0.itb.accesses                            0                       # DTB accesses
system.cpu0.itb.hits                                0                       # DTB hits
system.cpu0.itb.misses                              0                       # DTB misses
system.cpu0.itb.read_accesses                       0                       # DTB read accesses
system.cpu0.itb.read_hits                           0                       # DTB read hits
system.cpu0.itb.read_misses                         0                       # DTB read misses
system.cpu0.itb.write_accesses                      0                       # DTB write accesses
system.cpu0.itb.write_hits                          0                       # DTB write hits
system.cpu0.itb.write_misses                        0                       # DTB write misses
system.cpu0.memDep0.conflictingLoads          9841792                       # Number of conflicting loads.
system.cpu0.memDep0.conflictingStores         1854154                       # Number of conflicting stores.
system.cpu0.memDep0.insertedLoads           200094149                       # Number of loads inserted to the mem dependence unit.
system.cpu0.memDep0.insertedStores           79640062                       # Number of stores inserted to the mem dependence unit.
system.cpu0.misc_regfile_reads                   1037                       # number of misc regfile reads
system.cpu0.misc_regfile_writes                    22                       # number of misc regfile writes
system.cpu0.numCycles                       968446585                       # number of cpu cycles simulated
system.cpu0.numWorkItemsCompleted                   0                       # number of work items this cpu completed
system.cpu0.numWorkItemsStarted                     0                       # number of work items this cpu started
system.cpu0.quiesceCycles                    13390991                       # Total number of cycles that CPU has spent quiesced or waiting for an interrupt
system.cpu0.rename.BlockCycles               86940856                       # Number of cycles rename is blocking
system.cpu0.rename.CommittedMaps            357818147                       # Number of HB maps that are committed
system.cpu0.rename.IQFullEvents               3184314                       # Number of times rename has blocked due to IQ full
system.cpu0.rename.IdleCycles               356499506                       # Number of cycles rename is idle
system.cpu0.rename.LQFullEvents               4163923                       # Number of times rename has blocked due to LQ full
system.cpu0.rename.ROBFullEvents                 9700                       # Number of times rename has blocked due to ROB full
system.cpu0.rename.RenameLookups            773859256                       # Number of register rename lookups that rename has made
system.cpu0.rename.RenamedInsts             635007556                       # Number of instructions processed by rename
system.cpu0.rename.RenamedOperands          407625797                       # Number of destination operands rename has renamed
system.cpu0.rename.RunCycles                436991932                       # Number of cycles rename is running
system.cpu0.rename.SQFullEvents               6646073                       # Number of times rename has blocked due to SQ full
system.cpu0.rename.SquashCycles               5872641                       # Number of cycles rename is squashing
system.cpu0.rename.UnblockCycles             14239651                       # Number of cycles rename is unblocking
system.cpu0.rename.UndoneMaps                49807646                       # Number of HB maps that are undone due to squashing
system.cpu0.rename.fp_rename_lookups               44                       # Number of floating rename lookups
system.cpu0.rename.int_rename_lookups       773859212                       # Number of integer rename lookups
system.cpu0.rename.serializeStallCycles        103327                       # count of cycles rename stalled for serializing inst
system.cpu0.rename.serializingInsts              3152                       # count of serializing insts renamed
system.cpu0.rename.skidInsts                  7622105                       # count of insts added to the skid buffer
system.cpu0.rename.tempSerializingInsts          3133                       # count of temporary serializing insts renamed
system.cpu0.rob.rob_reads                  1496723233                       # The number of ROB reads
system.cpu0.rob.rob_writes                 1262750755                       # The number of ROB writes
system.cpu0.timesIdled                       11191111                       # Number of times that the entire CPU went into an idle state and unscheduled itself
system.cpu0.workload.numSyscalls                 1004                       # Number of system calls
system.cpu1.branchPred.BTBCorrect                   0                       # Number of correct BTB predictions (this stat may not work properly.
system.cpu1.branchPred.BTBHitPct            74.027231                       # BTB Hit Percentage
system.cpu1.branchPred.BTBHits                3097839                       # Number of BTB hits
system.cpu1.branchPred.BTBLookups             4184729                       # Number of BTB lookups
system.cpu1.branchPred.RASInCorrect                 0                       # Number of incorrect RAS predictions.
system.cpu1.branchPred.condIncorrect           533143                       # Number of conditional branches incorrect
system.cpu1.branchPred.condPredicted          5495348                       # Number of conditional branches predicted
system.cpu1.branchPred.indirectHits            136739                       # Number of indirect target hits.
system.cpu1.branchPred.indirectLookups         175539                       # Number of indirect predictor lookups.
system.cpu1.branchPred.indirectMisses           38800                       # Number of indirect misses.
system.cpu1.branchPred.lookups                6170471                       # Number of BP lookups
system.cpu1.branchPred.usedRAS                      0                       # Number of times the RAS was used to get a target.
system.cpu1.branchPredindirectMispredicted         8810                       # Number of mispredicted indirect branches.
system.cpu1.commit.amos                        509185                       # Number of atomic instructions committed
system.cpu1.commit.branchMispredicts           374331                       # The number of times a branch was mispredicted
system.cpu1.commit.branches                   4419237                       # Number of branches committed
system.cpu1.commit.bw_lim_events               494902                       # number cycles where commit BW limit reached
system.cpu1.commit.commitNonSpecStalls        1528228                       # The number of times commit has been forced to stall to communicate backwards
system.cpu1.commit.commitSquashedInsts        4040722                       # The number of squashed insts skipped by commit
system.cpu1.commit.committedInsts            19243649                       # Number of instructions committed
system.cpu1.commit.committedOps              19753038                       # Number of ops (including micro ops) committed
system.cpu1.commit.committed_per_cycle::samples    111685593                       # Number of insts commited each cycle
system.cpu1.commit.committed_per_cycle::mean     0.176863                       # Number of insts commited each cycle
system.cpu1.commit.committed_per_cycle::stdev     0.828479                       # Number of insts commited each cycle
system.cpu1.commit.committed_per_cycle::underflows            0      0.00%      0.00% # Number of insts commited each cycle
system.cpu1.commit.committed_per_cycle::0    103401478     92.58%     92.58% # Number of insts commited each cycle
system.cpu1.commit.committed_per_cycle::1      4144816      3.71%     96.29% # Number of insts commited each cycle
system.cpu1.commit.committed_per_cycle::2      1419783      1.27%     97.57% # Number of insts commited each cycle
system.cpu1.commit.committed_per_cycle::3      1281450      1.15%     98.71% # Number of insts commited each cycle
system.cpu1.commit.committed_per_cycle::4       325499      0.29%     99.00% # Number of insts commited each cycle
system.cpu1.commit.committed_per_cycle::5       117502      0.11%     99.11% # Number of insts commited each cycle
system.cpu1.commit.committed_per_cycle::6       425557      0.38%     99.49% # Number of insts commited each cycle
system.cpu1.commit.committed_per_cycle::7        74606      0.07%     99.56% # Number of insts commited each cycle
system.cpu1.commit.committed_per_cycle::8       494902      0.44%    100.00% # Number of insts commited each cycle
system.cpu1.commit.committed_per_cycle::overflows            0      0.00%    100.00% # Number of insts commited each cycle
system.cpu1.commit.committed_per_cycle::min_value            0                       # Number of insts commited each cycle
system.cpu1.commit.committed_per_cycle::max_value            8                       # Number of insts commited each cycle
system.cpu1.commit.committed_per_cycle::total    111685593                       # Number of insts commited each cycle
system.cpu1.commit.fp_insts                        12                       # Number of committed floating point instructions.
system.cpu1.commit.function_calls              227434                       # Number of function calls committed.
system.cpu1.commit.int_insts                 18552641                       # Number of committed integer instructions.
system.cpu1.commit.loads                      5320126                       # Number of loads committed
system.cpu1.commit.membars                    1018440                       # Number of memory barriers committed
system.cpu1.commit.op_class_0::No_OpClass      1018440      5.16%      5.16% # Class of committed instruction
system.cpu1.commit.op_class_0::IntAlu        11645514     58.96%     64.11% # Class of committed instruction
system.cpu1.commit.op_class_0::IntMult             42      0.00%     64.11% # Class of committed instruction
system.cpu1.commit.op_class_0::IntDiv              84      0.00%     64.11% # Class of committed instruction
system.cpu1.commit.op_class_0::FloatAdd             0      0.00%     64.11% # Class of committed instruction
system.cpu1.commit.op_class_0::FloatCmp             0      0.00%     64.11% # Class of committed instruction
system.cpu1.commit.op_class_0::FloatCvt             0      0.00%     64.11% # Class of committed instruction
system.cpu1.commit.op_class_0::FloatMult            0      0.00%     64.11% # Class of committed instruction
system.cpu1.commit.op_class_0::FloatMultAcc            0      0.00%     64.11% # Class of committed instruction
system.cpu1.commit.op_class_0::FloatDiv             0      0.00%     64.11% # Class of committed instruction
system.cpu1.commit.op_class_0::FloatMisc            0      0.00%     64.11% # Class of committed instruction
system.cpu1.commit.op_class_0::FloatSqrt            0      0.00%     64.11% # Class of committed instruction
system.cpu1.commit.op_class_0::SimdAdd              0      0.00%     64.11% # Class of committed instruction
system.cpu1.commit.op_class_0::SimdAddAcc            0      0.00%     64.11% # Class of committed instruction
system.cpu1.commit.op_class_0::SimdAlu              0      0.00%     64.11% # Class of committed instruction
system.cpu1.commit.op_class_0::SimdCmp              0      0.00%     64.11% # Class of committed instruction
system.cpu1.commit.op_class_0::SimdCvt              0      0.00%     64.11% # Class of committed instruction
system.cpu1.commit.op_class_0::SimdMisc             0      0.00%     64.11% # Class of committed instruction
system.cpu1.commit.op_class_0::SimdMult             0      0.00%     64.11% # Class of committed instruction
system.cpu1.commit.op_class_0::SimdMultAcc            0      0.00%     64.11% # Class of committed instruction
system.cpu1.commit.op_class_0::SimdShift            0      0.00%     64.11% # Class of committed instruction
system.cpu1.commit.op_class_0::SimdShiftAcc            0      0.00%     64.11% # Class of committed instruction
system.cpu1.commit.op_class_0::SimdDiv              0      0.00%     64.11% # Class of committed instruction
system.cpu1.commit.op_class_0::SimdSqrt             0      0.00%     64.11% # Class of committed instruction
system.cpu1.commit.op_class_0::SimdFloatAdd            0      0.00%     64.11% # Class of committed instruction
system.cpu1.commit.op_class_0::SimdFloatAlu            0      0.00%     64.11% # Class of committed instruction
system.cpu1.commit.op_class_0::SimdFloatCmp            0      0.00%     64.11% # Class of committed instruction
system.cpu1.commit.op_class_0::SimdFloatCvt            0      0.00%     64.11% # Class of committed instruction
system.cpu1.commit.op_class_0::SimdFloatDiv            0      0.00%     64.11% # Class of committed instruction
system.cpu1.commit.op_class_0::SimdFloatMisc            0      0.00%     64.11% # Class of committed instruction
system.cpu1.commit.op_class_0::SimdFloatMult            0      0.00%     64.11% # Class of committed instruction
system.cpu1.commit.op_class_0::SimdFloatMultAcc            0      0.00%     64.11% # Class of committed instruction
system.cpu1.commit.op_class_0::SimdFloatSqrt            0      0.00%     64.11% # Class of committed instruction
system.cpu1.commit.op_class_0::SimdReduceAdd            0      0.00%     64.11% # Class of committed instruction
system.cpu1.commit.op_class_0::SimdReduceAlu            0      0.00%     64.11% # Class of committed instruction
system.cpu1.commit.op_class_0::SimdReduceCmp            0      0.00%     64.11% # Class of committed instruction
system.cpu1.commit.op_class_0::SimdFloatReduceAdd            0      0.00%     64.11% # Class of committed instruction
system.cpu1.commit.op_class_0::SimdFloatReduceCmp            0      0.00%     64.11% # Class of committed instruction
system.cpu1.commit.op_class_0::SimdAes              0      0.00%     64.11% # Class of committed instruction
system.cpu1.commit.op_class_0::SimdAesMix            0      0.00%     64.11% # Class of committed instruction
system.cpu1.commit.op_class_0::SimdSha1Hash            0      0.00%     64.11% # Class of committed instruction
system.cpu1.commit.op_class_0::SimdSha1Hash2            0      0.00%     64.11% # Class of committed instruction
system.cpu1.commit.op_class_0::SimdSha256Hash            0      0.00%     64.11% # Class of committed instruction
system.cpu1.commit.op_class_0::SimdSha256Hash2            0      0.00%     64.11% # Class of committed instruction
system.cpu1.commit.op_class_0::SimdShaSigma2            0      0.00%     64.11% # Class of committed instruction
system.cpu1.commit.op_class_0::SimdShaSigma3            0      0.00%     64.11% # Class of committed instruction
system.cpu1.commit.op_class_0::SimdPredAlu            0      0.00%     64.11% # Class of committed instruction
system.cpu1.commit.op_class_0::MemRead        5829311     29.51%     93.62% # Class of committed instruction
system.cpu1.commit.op_class_0::MemWrite       1259635      6.38%    100.00% # Class of committed instruction
system.cpu1.commit.op_class_0::FloatMemRead            0      0.00%    100.00% # Class of committed instruction
system.cpu1.commit.op_class_0::FloatMemWrite           12      0.00%    100.00% # Class of committed instruction
system.cpu1.commit.op_class_0::IprAccess            0      0.00%    100.00% # Class of committed instruction
system.cpu1.commit.op_class_0::InstPrefetch            0      0.00%    100.00% # Class of committed instruction
system.cpu1.commit.op_class_0::total         19753038                       # Class of committed instruction
system.cpu1.commit.refs                       7088958                       # Number of memory references committed
system.cpu1.commit.swp_count                        0                       # Number of s/w prefetches committed
system.cpu1.commit.vec_insts                        0                       # Number of committed Vector instructions.
system.cpu1.committedInsts                   19243649                       # Number of Instructions Simulated
system.cpu1.committedOps                     19753038                       # Number of Ops (including micro ops) Simulated
system.cpu1.cpi                              5.862564                       # CPI: Cycles Per Instruction
system.cpu1.cpi_total                        5.862564                       # CPI: Total CPI of All Threads
system.cpu1.decode.BlockedCycles             96247035                       # Number of cycles decode is blocked
system.cpu1.decode.BranchMispred               164174                       # Number of times decode detected a branch misprediction
system.cpu1.decode.BranchResolved             2870577                       # Number of times decode resolved a branch
system.cpu1.decode.DecodedInsts              25421992                       # Number of instructions handled by decode
system.cpu1.decode.IdleCycles                 4369125                       # Number of cycles decode is idle
system.cpu1.decode.RunCycles                 10410490                       # Number of cycles decode is running
system.cpu1.decode.SquashCycles                374771                       # Number of cycles decode is squashing
system.cpu1.decode.SquashedInsts               317598                       # Number of squashed instructions handled by decode
system.cpu1.decode.UnblockCycles              1043389                       # Number of cycles decode is unblocking
system.cpu1.dtb.accesses                            0                       # DTB accesses
system.cpu1.dtb.hits                                0                       # DTB hits
system.cpu1.dtb.misses                              0                       # DTB misses
system.cpu1.dtb.read_accesses                       0                       # DTB read accesses
system.cpu1.dtb.read_hits                           0                       # DTB read hits
system.cpu1.dtb.read_misses                         0                       # DTB read misses
system.cpu1.dtb.write_accesses                      0                       # DTB write accesses
system.cpu1.dtb.write_hits                          0                       # DTB write hits
system.cpu1.dtb.write_misses                        0                       # DTB write misses
system.cpu1.fetch.Branches                    6170471                       # Number of branches that fetch encountered
system.cpu1.fetch.CacheLines                  4040563                       # Number of cache lines fetched
system.cpu1.fetch.Cycles                    107328505                       # Number of cycles fetch has run and was not squashing or blocked
system.cpu1.fetch.IcacheSquashes                76403                       # Number of outstanding Icache misses that were squashed
system.cpu1.fetch.IcacheWaitRetryStallCycles           57                       # Number of stall cycles due to full MSHR
system.cpu1.fetch.Insts                      27494849                       # Number of instructions fetch has processed
system.cpu1.fetch.MiscStallCycles                   4                       # Number of cycles fetch has spent waiting on interrupts, or bad addresses, or out of MSHRs
system.cpu1.fetch.SquashCycles                1067166                       # Number of cycles fetch has spent squashing
system.cpu1.fetch.branchRate                 0.054694                       # Number of branch fetches per cycle
system.cpu1.fetch.icacheStallCycles           4582661                       # Number of cycles fetch is stalled on an Icache miss
system.cpu1.fetch.predictedBranches           3234578                       # Number of branches that fetch has predicted taken
system.cpu1.fetch.rate                       0.243712                       # Number of inst fetches per cycle
system.cpu1.fetch.rateDist::samples         112444810                       # Number of instructions fetched each cycle (Total)
system.cpu1.fetch.rateDist::mean             0.251106                       # Number of instructions fetched each cycle (Total)
system.cpu1.fetch.rateDist::stdev            0.709654                       # Number of instructions fetched each cycle (Total)
system.cpu1.fetch.rateDist::underflows              0      0.00%      0.00% # Number of instructions fetched each cycle (Total)
system.cpu1.fetch.rateDist::0                95206102     84.67%     84.67% # Number of instructions fetched each cycle (Total)
system.cpu1.fetch.rateDist::1                10488845      9.33%     94.00% # Number of instructions fetched each cycle (Total)
system.cpu1.fetch.rateDist::2                 4047309      3.60%     97.60% # Number of instructions fetched each cycle (Total)
system.cpu1.fetch.rateDist::3                 1834563      1.63%     99.23% # Number of instructions fetched each cycle (Total)
system.cpu1.fetch.rateDist::4                  467522      0.42%     99.64% # Number of instructions fetched each cycle (Total)
system.cpu1.fetch.rateDist::5                  124837      0.11%     99.75% # Number of instructions fetched each cycle (Total)
system.cpu1.fetch.rateDist::6                  275441      0.24%    100.00% # Number of instructions fetched each cycle (Total)
system.cpu1.fetch.rateDist::7                      15      0.00%    100.00% # Number of instructions fetched each cycle (Total)
system.cpu1.fetch.rateDist::8                     176      0.00%    100.00% # Number of instructions fetched each cycle (Total)
system.cpu1.fetch.rateDist::overflows               0      0.00%    100.00% # Number of instructions fetched each cycle (Total)
system.cpu1.fetch.rateDist::min_value               0                       # Number of instructions fetched each cycle (Total)
system.cpu1.fetch.rateDist::max_value               8                       # Number of instructions fetched each cycle (Total)
system.cpu1.fetch.rateDist::total           112444810                       # Number of instructions fetched each cycle (Total)
system.cpu1.fp_regfile_reads                       12                       # number of floating regfile reads
system.cpu1.idleCycles                         372313                       # Total number of cycles that the CPU has spent unscheduled due to idling
system.cpu1.iew.branchMispredicts              393287                       # Number of branch mispredicts detected at execute
system.cpu1.iew.exec_branches                 4925496                       # Number of branches executed
system.cpu1.iew.exec_nop                            0                       # number of nop insts executed
system.cpu1.iew.exec_rate                    0.192172                       # Inst execution rate
system.cpu1.iew.exec_refs                     7710342                       # number of memory reference insts executed
system.cpu1.iew.exec_stores                   1849283                       # Number of stores executed
system.cpu1.iew.exec_swp                            0                       # number of swp insts executed
system.cpu1.iew.iewBlockCycles               84255079                       # Number of cycles IEW is blocking
system.cpu1.iew.iewDispLoadInsts              6445512                       # Number of dispatched load instructions
system.cpu1.iew.iewDispNonSpecInsts            600406                       # Number of dispatched non-speculative instructions
system.cpu1.iew.iewDispSquashedInsts           467630                       # Number of squashed instructions skipped by dispatch
system.cpu1.iew.iewDispStoreInsts             2088084                       # Number of dispatched store instructions
system.cpu1.iew.iewDispatchedInsts           23788359                       # Number of instructions dispatched to IQ
system.cpu1.iew.iewExecLoadInsts              5861059                       # Number of load instructions executed
system.cpu1.iew.iewExecSquashedInsts           282985                       # Number of squashed instructions skipped in execute
system.cpu1.iew.iewExecutedInsts             21680309                       # Number of executed instructions
system.cpu1.iew.iewIQFullEvents                359163                       # Number of times the IQ has become full, causing a stall
system.cpu1.iew.iewIdleCycles                       0                       # Number of cycles IEW is idle
system.cpu1.iew.iewLSQFullEvents               918773                       # Number of times the LSQ has become full, causing a stall
system.cpu1.iew.iewSquashCycles                374771                       # Number of cycles IEW is squashing
system.cpu1.iew.iewUnblockCycles              1889654                       # Number of cycles IEW is unblocking
system.cpu1.iew.lsq.thread0.blockedLoads            0                       # Number of blocked loads due to partial load-store forwarding
system.cpu1.iew.lsq.thread0.cacheBlocked        15503                       # Number of times an access to memory failed due to the cache being blocked
system.cpu1.iew.lsq.thread0.forwLoads          148088                       # Number of loads that had data forwarded from stores
system.cpu1.iew.lsq.thread0.ignoredResponses         6823                       # Number of memory responses ignored because the instruction is squashed
system.cpu1.iew.lsq.thread0.invAddrLoads            0                       # Number of loads ignored due to an invalid address
system.cpu1.iew.lsq.thread0.invAddrSwpfs            0                       # Number of software prefetches ignored due to an invalid address
system.cpu1.iew.lsq.thread0.memOrderViolation          451                       # Number of memory ordering violations
system.cpu1.iew.lsq.thread0.rescheduledLoads         1285                       # Number of loads that were rescheduled
system.cpu1.iew.lsq.thread0.squashedLoads      1125386                       # Number of loads squashed
system.cpu1.iew.lsq.thread0.squashedStores       319252                       # Number of stores squashed
system.cpu1.iew.memOrderViolationEvents           451                       # Number of memory order violations
system.cpu1.iew.predictedNotTakenIncorrect       149555                       # Number of branches that were predicted not taken incorrectly
system.cpu1.iew.predictedTakenIncorrect        243732                       # Number of branches that were predicted taken incorrectly
system.cpu1.iew.wb_consumers                 12247511                       # num instructions consuming a value
system.cpu1.iew.wb_count                     21433416                       # cumulative count of insts written-back
system.cpu1.iew.wb_fanout                    0.844996                       # average fanout of values written-back
system.cpu1.iew.wb_producers                 10349101                       # num instructions producing a value
system.cpu1.iew.wb_rate                      0.189984                       # insts written-back per cycle
system.cpu1.iew.wb_sent                      21441476                       # cumulative count of insts sent to commit
system.cpu1.int_regfile_reads                27115899                       # number of integer regfile reads
system.cpu1.int_regfile_writes               14284702                       # number of integer regfile writes
system.cpu1.ipc                              0.170574                       # IPC: Instructions Per Cycle
system.cpu1.ipc_total                        0.170574                       # IPC: Total IPC of All Threads
system.cpu1.iq.FU_type_0::No_OpClass          1018639      4.64%      4.64% # Type of FU issued
system.cpu1.iq.FU_type_0::IntAlu             13148518     59.87%     64.50% # Type of FU issued
system.cpu1.iq.FU_type_0::IntMult                  48      0.00%     64.50% # Type of FU issued
system.cpu1.iq.FU_type_0::IntDiv                   86      0.00%     64.50% # Type of FU issued
system.cpu1.iq.FU_type_0::FloatAdd                  0      0.00%     64.50% # Type of FU issued
system.cpu1.iq.FU_type_0::FloatCmp                  0      0.00%     64.50% # Type of FU issued
system.cpu1.iq.FU_type_0::FloatCvt                  0      0.00%     64.50% # Type of FU issued
system.cpu1.iq.FU_type_0::FloatMult                 0      0.00%     64.50% # Type of FU issued
system.cpu1.iq.FU_type_0::FloatMultAcc              0      0.00%     64.50% # Type of FU issued
system.cpu1.iq.FU_type_0::FloatDiv                  0      0.00%     64.50% # Type of FU issued
system.cpu1.iq.FU_type_0::FloatMisc                 0      0.00%     64.50% # Type of FU issued
system.cpu1.iq.FU_type_0::FloatSqrt                 0      0.00%     64.50% # Type of FU issued
system.cpu1.iq.FU_type_0::SimdAdd                   0      0.00%     64.50% # Type of FU issued
system.cpu1.iq.FU_type_0::SimdAddAcc                0      0.00%     64.50% # Type of FU issued
system.cpu1.iq.FU_type_0::SimdAlu                   0      0.00%     64.50% # Type of FU issued
system.cpu1.iq.FU_type_0::SimdCmp                   0      0.00%     64.50% # Type of FU issued
system.cpu1.iq.FU_type_0::SimdCvt                   0      0.00%     64.50% # Type of FU issued
system.cpu1.iq.FU_type_0::SimdMisc                  0      0.00%     64.50% # Type of FU issued
system.cpu1.iq.FU_type_0::SimdMult                  0      0.00%     64.50% # Type of FU issued
system.cpu1.iq.FU_type_0::SimdMultAcc               0      0.00%     64.50% # Type of FU issued
system.cpu1.iq.FU_type_0::SimdShift                 0      0.00%     64.50% # Type of FU issued
system.cpu1.iq.FU_type_0::SimdShiftAcc              0      0.00%     64.50% # Type of FU issued
system.cpu1.iq.FU_type_0::SimdDiv                   0      0.00%     64.50% # Type of FU issued
system.cpu1.iq.FU_type_0::SimdSqrt                  0      0.00%     64.50% # Type of FU issued
system.cpu1.iq.FU_type_0::SimdFloatAdd              0      0.00%     64.50% # Type of FU issued
system.cpu1.iq.FU_type_0::SimdFloatAlu              0      0.00%     64.50% # Type of FU issued
system.cpu1.iq.FU_type_0::SimdFloatCmp              0      0.00%     64.50% # Type of FU issued
system.cpu1.iq.FU_type_0::SimdFloatCvt              0      0.00%     64.50% # Type of FU issued
system.cpu1.iq.FU_type_0::SimdFloatDiv              0      0.00%     64.50% # Type of FU issued
system.cpu1.iq.FU_type_0::SimdFloatMisc             0      0.00%     64.50% # Type of FU issued
system.cpu1.iq.FU_type_0::SimdFloatMult             0      0.00%     64.50% # Type of FU issued
system.cpu1.iq.FU_type_0::SimdFloatMultAcc            0      0.00%     64.50% # Type of FU issued
system.cpu1.iq.FU_type_0::SimdFloatSqrt             0      0.00%     64.50% # Type of FU issued
system.cpu1.iq.FU_type_0::SimdReduceAdd             0      0.00%     64.50% # Type of FU issued
system.cpu1.iq.FU_type_0::SimdReduceAlu             0      0.00%     64.50% # Type of FU issued
system.cpu1.iq.FU_type_0::SimdReduceCmp             0      0.00%     64.50% # Type of FU issued
system.cpu1.iq.FU_type_0::SimdFloatReduceAdd            0      0.00%     64.50% # Type of FU issued
system.cpu1.iq.FU_type_0::SimdFloatReduceCmp            0      0.00%     64.50% # Type of FU issued
system.cpu1.iq.FU_type_0::SimdAes                   0      0.00%     64.50% # Type of FU issued
system.cpu1.iq.FU_type_0::SimdAesMix                0      0.00%     64.50% # Type of FU issued
system.cpu1.iq.FU_type_0::SimdSha1Hash              0      0.00%     64.50% # Type of FU issued
system.cpu1.iq.FU_type_0::SimdSha1Hash2             0      0.00%     64.50% # Type of FU issued
system.cpu1.iq.FU_type_0::SimdSha256Hash            0      0.00%     64.50% # Type of FU issued
system.cpu1.iq.FU_type_0::SimdSha256Hash2            0      0.00%     64.50% # Type of FU issued
system.cpu1.iq.FU_type_0::SimdShaSigma2             0      0.00%     64.50% # Type of FU issued
system.cpu1.iq.FU_type_0::SimdShaSigma3             0      0.00%     64.50% # Type of FU issued
system.cpu1.iq.FU_type_0::SimdPredAlu               0      0.00%     64.50% # Type of FU issued
system.cpu1.iq.FU_type_0::MemRead             6440129     29.32%     93.83% # Type of FU issued
system.cpu1.iq.FU_type_0::MemWrite            1355862      6.17%    100.00% # Type of FU issued
system.cpu1.iq.FU_type_0::FloatMemRead              0      0.00%    100.00% # Type of FU issued
system.cpu1.iq.FU_type_0::FloatMemWrite            12      0.00%    100.00% # Type of FU issued
system.cpu1.iq.FU_type_0::IprAccess                 0      0.00%    100.00% # Type of FU issued
system.cpu1.iq.FU_type_0::InstPrefetch              0      0.00%    100.00% # Type of FU issued
system.cpu1.iq.FU_type_0::total              21963294                       # Type of FU issued
system.cpu1.iq.fp_alu_accesses                     16                       # Number of floating point alu accesses
system.cpu1.iq.fp_inst_queue_reads                 28                       # Number of floating instruction queue reads
system.cpu1.iq.fp_inst_queue_wakeup_accesses           12                       # Number of floating instruction queue wakeup accesses
system.cpu1.iq.fp_inst_queue_writes                12                       # Number of floating instruction queue writes
system.cpu1.iq.fu_busy_cnt                     580040                       # FU busy when requested
system.cpu1.iq.fu_busy_rate                  0.026410                       # FU busy rate (busy events/executed inst)
system.cpu1.iq.fu_full::No_OpClass                  0      0.00%      0.00% # attempts to use FU when none available
system.cpu1.iq.fu_full::IntAlu                 113778     19.62%     19.62% # attempts to use FU when none available
system.cpu1.iq.fu_full::IntMult                     0      0.00%     19.62% # attempts to use FU when none available
system.cpu1.iq.fu_full::IntDiv                      0      0.00%     19.62% # attempts to use FU when none available
system.cpu1.iq.fu_full::FloatAdd                    0      0.00%     19.62% # attempts to use FU when none available
system.cpu1.iq.fu_full::FloatCmp                    0      0.00%     19.62% # attempts to use FU when none available
system.cpu1.iq.fu_full::FloatCvt                    0      0.00%     19.62% # attempts to use FU when none available
system.cpu1.iq.fu_full::FloatMult                   0      0.00%     19.62% # attempts to use FU when none available
system.cpu1.iq.fu_full::FloatMultAcc                0      0.00%     19.62% # attempts to use FU when none available
system.cpu1.iq.fu_full::FloatDiv                    0      0.00%     19.62% # attempts to use FU when none available
system.cpu1.iq.fu_full::FloatMisc                   0      0.00%     19.62% # attempts to use FU when none available
system.cpu1.iq.fu_full::FloatSqrt                   0      0.00%     19.62% # attempts to use FU when none available
system.cpu1.iq.fu_full::SimdAdd                     0      0.00%     19.62% # attempts to use FU when none available
system.cpu1.iq.fu_full::SimdAddAcc                  0      0.00%     19.62% # attempts to use FU when none available
system.cpu1.iq.fu_full::SimdAlu                     0      0.00%     19.62% # attempts to use FU when none available
system.cpu1.iq.fu_full::SimdCmp                     0      0.00%     19.62% # attempts to use FU when none available
system.cpu1.iq.fu_full::SimdCvt                     0      0.00%     19.62% # attempts to use FU when none available
system.cpu1.iq.fu_full::SimdMisc                    0      0.00%     19.62% # attempts to use FU when none available
system.cpu1.iq.fu_full::SimdMult                    0      0.00%     19.62% # attempts to use FU when none available
system.cpu1.iq.fu_full::SimdMultAcc                 0      0.00%     19.62% # attempts to use FU when none available
system.cpu1.iq.fu_full::SimdShift                   0      0.00%     19.62% # attempts to use FU when none available
system.cpu1.iq.fu_full::SimdShiftAcc                0      0.00%     19.62% # attempts to use FU when none available
system.cpu1.iq.fu_full::SimdDiv                     0      0.00%     19.62% # attempts to use FU when none available
system.cpu1.iq.fu_full::SimdSqrt                    0      0.00%     19.62% # attempts to use FU when none available
system.cpu1.iq.fu_full::SimdFloatAdd                0      0.00%     19.62% # attempts to use FU when none available
system.cpu1.iq.fu_full::SimdFloatAlu                0      0.00%     19.62% # attempts to use FU when none available
system.cpu1.iq.fu_full::SimdFloatCmp                0      0.00%     19.62% # attempts to use FU when none available
system.cpu1.iq.fu_full::SimdFloatCvt                0      0.00%     19.62% # attempts to use FU when none available
system.cpu1.iq.fu_full::SimdFloatDiv                0      0.00%     19.62% # attempts to use FU when none available
system.cpu1.iq.fu_full::SimdFloatMisc               0      0.00%     19.62% # attempts to use FU when none available
system.cpu1.iq.fu_full::SimdFloatMult               0      0.00%     19.62% # attempts to use FU when none available
system.cpu1.iq.fu_full::SimdFloatMultAcc            0      0.00%     19.62% # attempts to use FU when none available
system.cpu1.iq.fu_full::SimdFloatSqrt               0      0.00%     19.62% # attempts to use FU when none available
system.cpu1.iq.fu_full::SimdReduceAdd               0      0.00%     19.62% # attempts to use FU when none available
system.cpu1.iq.fu_full::SimdReduceAlu               0      0.00%     19.62% # attempts to use FU when none available
system.cpu1.iq.fu_full::SimdReduceCmp               0      0.00%     19.62% # attempts to use FU when none available
system.cpu1.iq.fu_full::SimdFloatReduceAdd            0      0.00%     19.62% # attempts to use FU when none available
system.cpu1.iq.fu_full::SimdFloatReduceCmp            0      0.00%     19.62% # attempts to use FU when none available
system.cpu1.iq.fu_full::SimdAes                     0      0.00%     19.62% # attempts to use FU when none available
system.cpu1.iq.fu_full::SimdAesMix                  0      0.00%     19.62% # attempts to use FU when none available
system.cpu1.iq.fu_full::SimdSha1Hash                0      0.00%     19.62% # attempts to use FU when none available
system.cpu1.iq.fu_full::SimdSha1Hash2               0      0.00%     19.62% # attempts to use FU when none available
system.cpu1.iq.fu_full::SimdSha256Hash              0      0.00%     19.62% # attempts to use FU when none available
system.cpu1.iq.fu_full::SimdSha256Hash2             0      0.00%     19.62% # attempts to use FU when none available
system.cpu1.iq.fu_full::SimdShaSigma2               0      0.00%     19.62% # attempts to use FU when none available
system.cpu1.iq.fu_full::SimdShaSigma3               0      0.00%     19.62% # attempts to use FU when none available
system.cpu1.iq.fu_full::SimdPredAlu                 0      0.00%     19.62% # attempts to use FU when none available
system.cpu1.iq.fu_full::MemRead                416991     71.89%     91.51% # attempts to use FU when none available
[...]
system.cpu1.dcache.WriteReq_mshr_miss_rate::total     0.040513                       # mshr miss rate for WriteReq accesses
system.cpu1.dcache.WriteReq_avg_mshr_miss_latency::.cpu1.data 95044.001230                       # average WriteReq mshr miss latency
system.cpu1.dcache.WriteReq_avg_mshr_miss_latency::total 95044.001230                       # average WriteReq mshr miss latency
system.cpu1.dcache.LoadLockedReq_hits::.cpu1.data        30732                       # number of LoadLockedReq hits
system.cpu1.dcache.LoadLockedReq_hits::total        30732                       # number of LoadLockedReq hits
system.cpu1.dcache.LoadLockedReq_misses::.cpu1.data         1576                       # number of LoadLockedReq misses
system.cpu1.dcache.LoadLockedReq_misses::total         1576                       # number of LoadLockedReq misses
system.cpu1.dcache.LoadLockedReq_miss_latency::.cpu1.data     41437000                       # number of LoadLockedReq miss cycles
system.cpu1.dcache.LoadLockedReq_miss_latency::total     41437000                       # number of LoadLockedReq miss cycles
system.cpu1.dcache.LoadLockedReq_accesses::.cpu1.data        32308                       # number of LoadLockedReq accesses(hits+misses)
system.cpu1.dcache.LoadLockedReq_accesses::total        32308                       # number of LoadLockedReq accesses(hits+misses)
system.cpu1.dcache.LoadLockedReq_miss_rate::.cpu1.data     0.048780                       # miss rate for LoadLockedReq accesses
system.cpu1.dcache.LoadLockedReq_miss_rate::total     0.048780                       # miss rate for LoadLockedReq accesses
system.cpu1.dcache.LoadLockedReq_avg_miss_latency::.cpu1.data 26292.512690                       # average LoadLockedReq miss latency
system.cpu1.dcache.LoadLockedReq_avg_miss_latency::total 26292.512690                       # average LoadLockedReq miss latency
system.cpu1.dcache.LoadLockedReq_mshr_hits::.cpu1.data          440                       # number of LoadLockedReq MSHR hits
system.cpu1.dcache.LoadLockedReq_mshr_hits::total          440                       # number of LoadLockedReq MSHR hits
system.cpu1.dcache.LoadLockedReq_mshr_misses::.cpu1.data         1136                       # number of LoadLockedReq MSHR misses
system.cpu1.dcache.LoadLockedReq_mshr_misses::total         1136                       # number of LoadLockedReq MSHR misses
system.cpu1.dcache.LoadLockedReq_mshr_miss_latency::.cpu1.data     17699000                       # number of LoadLockedReq MSHR miss cycles
system.cpu1.dcache.LoadLockedReq_mshr_miss_latency::total     17699000                       # number of LoadLockedReq MSHR miss cycles
system.cpu1.dcache.LoadLockedReq_mshr_miss_rate::.cpu1.data     0.035162                       # mshr miss rate for LoadLockedReq accesses
system.cpu1.dcache.LoadLockedReq_mshr_miss_rate::total     0.035162                       # mshr miss rate for LoadLockedReq accesses
system.cpu1.dcache.LoadLockedReq_avg_mshr_miss_latency::.cpu1.data 15580.105634                       # average LoadLockedReq mshr miss latency
system.cpu1.dcache.LoadLockedReq_avg_mshr_miss_latency::total 15580.105634                       # average LoadLockedReq mshr miss latency
system.cpu1.dcache.StoreCondReq_hits::.cpu1.data        25131                       # number of StoreCondReq hits
system.cpu1.dcache.StoreCondReq_hits::total        25131                       # number of StoreCondReq hits
system.cpu1.dcache.StoreCondReq_misses::.cpu1.data         5853                       # number of StoreCondReq misses
system.cpu1.dcache.StoreCondReq_misses::total         5853                       # number of StoreCondReq misses
system.cpu1.dcache.StoreCondReq_miss_latency::.cpu1.data     46005000                       # number of StoreCondReq miss cycles
system.cpu1.dcache.StoreCondReq_miss_latency::total     46005000                       # number of StoreCondReq miss cycles
system.cpu1.dcache.StoreCondReq_accesses::.cpu1.data        30984                       # number of StoreCondReq accesses(hits+misses)
system.cpu1.dcache.StoreCondReq_accesses::total        30984                       # number of StoreCondReq accesses(hits+misses)
system.cpu1.dcache.StoreCondReq_miss_rate::.cpu1.data     0.188904                       # miss rate for StoreCondReq accesses
system.cpu1.dcache.StoreCondReq_miss_rate::total     0.188904                       # miss rate for StoreCondReq accesses
system.cpu1.dcache.StoreCondReq_avg_miss_latency::.cpu1.data  7860.071758                       # average StoreCondReq miss latency
system.cpu1.dcache.StoreCondReq_avg_miss_latency::total  7860.071758                       # average StoreCondReq miss latency
system.cpu1.dcache.StoreCondReq_mshr_misses::.cpu1.data         5679                       # number of StoreCondReq MSHR misses
system.cpu1.dcache.StoreCondReq_mshr_misses::total         5679                       # number of StoreCondReq MSHR misses
system.cpu1.dcache.StoreCondReq_mshr_miss_latency::.cpu1.data     40486000                       # number of StoreCondReq MSHR miss cycles
system.cpu1.dcache.StoreCondReq_mshr_miss_latency::total     40486000                       # number of StoreCondReq MSHR miss cycles
system.cpu1.dcache.StoreCondReq_mshr_miss_rate::.cpu1.data     0.183288                       # mshr miss rate for StoreCondReq accesses
system.cpu1.dcache.StoreCondReq_mshr_miss_rate::total     0.183288                       # mshr miss rate for StoreCondReq accesses
system.cpu1.dcache.StoreCondReq_avg_mshr_miss_latency::.cpu1.data  7129.072020                       # average StoreCondReq mshr miss latency
system.cpu1.dcache.StoreCondReq_avg_mshr_miss_latency::total  7129.072020                       # average StoreCondReq mshr miss latency
system.cpu1.dcache.StoreCondFailReq_miss_latency::.cpu1.data      3753000                       # number of StoreCondFailReq miss cycles
system.cpu1.dcache.StoreCondFailReq_miss_latency::total      3753000                       # number of StoreCondFailReq miss cycles
system.cpu1.dcache.StoreCondFailReq_avg_miss_latency::.cpu1.data          inf                       # average StoreCondFailReq miss latency
system.cpu1.dcache.StoreCondFailReq_avg_miss_latency::total          inf                       # average StoreCondFailReq miss latency
system.cpu1.dcache.StoreCondFailReq_mshr_miss_latency::.cpu1.data      3593000                       # number of StoreCondFailReq MSHR miss cycles
system.cpu1.dcache.StoreCondFailReq_mshr_miss_latency::total      3593000                       # number of StoreCondFailReq MSHR miss cycles
system.cpu1.dcache.StoreCondFailReq_avg_mshr_miss_latency::.cpu1.data          inf                       # average StoreCondFailReq mshr miss latency
system.cpu1.dcache.StoreCondFailReq_avg_mshr_miss_latency::total          inf                       # average StoreCondFailReq mshr miss latency
system.cpu1.dcache.SwapReq_hits::.cpu1.data         1099                       # number of SwapReq hits
system.cpu1.dcache.SwapReq_hits::total           1099                       # number of SwapReq hits
system.cpu1.dcache.SwapReq_misses::.cpu1.data         2834                       # number of SwapReq misses
system.cpu1.dcache.SwapReq_misses::total         2834                       # number of SwapReq misses
system.cpu1.dcache.SwapReq_miss_latency::.cpu1.data     60351500                       # number of SwapReq miss cycles
system.cpu1.dcache.SwapReq_miss_latency::total     60351500                       # number of SwapReq miss cycles
system.cpu1.dcache.SwapReq_accesses::.cpu1.data         3933                       # number of SwapReq accesses(hits+misses)
system.cpu1.dcache.SwapReq_accesses::total         3933                       # number of SwapReq accesses(hits+misses)
system.cpu1.dcache.SwapReq_miss_rate::.cpu1.data     0.720570                       # miss rate for SwapReq accesses
system.cpu1.dcache.SwapReq_miss_rate::total     0.720570                       # miss rate for SwapReq accesses
system.cpu1.dcache.SwapReq_avg_miss_latency::.cpu1.data 21295.518701                       # average SwapReq miss latency
system.cpu1.dcache.SwapReq_avg_miss_latency::total 21295.518701                       # average SwapReq miss latency
system.cpu1.dcache.SwapReq_mshr_misses::.cpu1.data         2834                       # number of SwapReq MSHR misses
system.cpu1.dcache.SwapReq_mshr_misses::total         2834                       # number of SwapReq MSHR misses
system.cpu1.dcache.SwapReq_mshr_miss_latency::.cpu1.data     57517500                       # number of SwapReq MSHR miss cycles
system.cpu1.dcache.SwapReq_mshr_miss_latency::total     57517500                       # number of SwapReq MSHR miss cycles
system.cpu1.dcache.SwapReq_mshr_miss_rate::.cpu1.data     0.720570                       # mshr miss rate for SwapReq accesses
system.cpu1.dcache.SwapReq_mshr_miss_rate::total     0.720570                       # mshr miss rate for SwapReq accesses
system.cpu1.dcache.SwapReq_avg_mshr_miss_latency::.cpu1.data 20295.518701                       # average SwapReq mshr miss latency
system.cpu1.dcache.SwapReq_avg_mshr_miss_latency::total 20295.518701                       # average SwapReq mshr miss latency
system.cpu1.dcache.tags.pwrStateResidencyTicks::UNDEFINED  43340097500                       # Cumulative time (in ticks) in various power states
system.cpu1.dcache.tags.tagsinuse           30.964840                       # Cycle average of tags in use
system.cpu1.dcache.tags.total_refs            9291576                       # Total number of references to valid blocks.
system.cpu1.dcache.tags.sampled_refs           641863                       # Sample count of references to valid blocks.
system.cpu1.dcache.tags.avg_refs            14.475949                       # Average number of references to valid blocks.
system.cpu1.dcache.tags.warmup_cycle                0                       # Cycle when the warmup percentage was hit.
system.cpu1.dcache.tags.occ_blocks::.cpu1.data    30.964840                       # Average occupied blocks per requestor
system.cpu1.dcache.tags.occ_percent::.cpu1.data     0.967651                       # Average percentage of cache occupancy
system.cpu1.dcache.tags.occ_percent::total     0.967651                       # Average percentage of cache occupancy
system.cpu1.dcache.tags.occ_task_id_blocks::1024           29                       # Occupied blocks per task id
system.cpu1.dcache.tags.age_task_id_blocks_1024::1           29                       # Occupied blocks per task id
system.cpu1.dcache.tags.occ_task_id_percent::1024     0.906250                       # Percentage of cache occupancy per task id
system.cpu1.dcache.tags.tag_accesses         24142608                       # Number of tag accesses
system.cpu1.dcache.tags.data_accesses        24142608                       # Number of data accesses
system.cpu_clk_domain.clock                       500                       # Clock period in ticks
system.tol2bus.pwrStateResidencyTicks::UNDEFINED  43340097500                       # Cumulative time (in ticks) in various power states
system.tol2bus.trans_dist::ReadResp           2628119                       # Transaction distribution
system.tol2bus.trans_dist::ReadRespWithInvalidate           12                       # Transaction distribution
system.tol2bus.trans_dist::WritebackDirty       834240                       # Transaction distribution
system.tol2bus.trans_dist::WritebackClean      2269413                       # Transaction distribution
system.tol2bus.trans_dist::CleanEvict         4493471                       # Transaction distribution
system.tol2bus.trans_dist::HardPFReq          1790107                       # Transaction distribution
system.tol2bus.trans_dist::HardPFResp               4                       # Transaction distribution
system.tol2bus.trans_dist::UpgradeReq           14581                       # Transaction distribution
system.tol2bus.trans_dist::SCUpgradeReq         22745                       # Transaction distribution
system.tol2bus.trans_dist::UpgradeResp          37326                       # Transaction distribution
system.tol2bus.trans_dist::SCUpgradeFailReq          532                       # Transaction distribution
system.tol2bus.trans_dist::UpgradeFailResp          532                       # Transaction distribution
system.tol2bus.trans_dist::ReadExReq           143847                       # Transaction distribution
system.tol2bus.trans_dist::ReadExResp          143847                       # Transaction distribution
system.tol2bus.trans_dist::ReadCleanReq        178344                       # Transaction distribution
system.tol2bus.trans_dist::ReadSharedReq      2449786                       # Transaction distribution
system.tol2bus.trans_dist::InvalidateReq          512                       # Transaction distribution
system.tol2bus.trans_dist::InvalidateResp          512                       # Transaction distribution
system.tol2bus.pkt_count_system.cpu0.icache.mem_side::system.l2.cpu_side       326627                       # Packet count per connected master and slave (bytes)
system.tol2bus.pkt_count_system.cpu0.dcache.mem_side::system.l2.cpu_side      2096840                       # Packet count per connected master and slave (bytes)
system.tol2bus.pkt_count_system.cpu1.icache.mem_side::system.l2.cpu_side        69501                       # Packet count per connected master and slave (bytes)
system.tol2bus.pkt_count_system.cpu1.dcache.mem_side::system.l2.cpu_side      1909241                       # Packet count per connected master and slave (bytes)
system.tol2bus.pkt_count_system.cpu2.icache.mem_side::system.l2.cpu_side        69858                       # Packet count per connected master and slave (bytes)
system.tol2bus.pkt_count_system.cpu2.dcache.mem_side::system.l2.cpu_side      1879620                       # Packet count per connected master and slave (bytes)
system.tol2bus.pkt_count_system.cpu3.icache.mem_side::system.l2.cpu_side        69048                       # Packet count per connected master and slave (bytes)
system.tol2bus.pkt_count_system.cpu3.dcache.mem_side::system.l2.cpu_side      1837199                       # Packet count per connected master and slave (bytes)
system.tol2bus.pkt_count::total               8257934                       # Packet count per connected master and slave (bytes)
system.tol2bus.pkt_size_system.cpu0.icache.mem_side::system.l2.cpu_side     13936128                       # Cumulative packet size per connected master and slave (bytes)
system.tol2bus.pkt_size_system.cpu0.dcache.mem_side::system.l2.cpu_side     88359360                       # Cumulative packet size per connected master and slave (bytes)
system.tol2bus.pkt_size_system.cpu1.icache.mem_side::system.l2.cpu_side      2965376                       # Cumulative packet size per connected master and slave (bytes)
system.tol2bus.pkt_size_system.cpu1.dcache.mem_side::system.l2.cpu_side     80433280                       # Cumulative packet size per connected master and slave (bytes)
system.tol2bus.pkt_size_system.cpu2.icache.mem_side::system.l2.cpu_side      2980608                       # Cumulative packet size per connected master and slave (bytes)
system.tol2bus.pkt_size_system.cpu2.dcache.mem_side::system.l2.cpu_side     79132096                       # Cumulative packet size per connected master and slave (bytes)
system.tol2bus.pkt_size_system.cpu3.icache.mem_side::system.l2.cpu_side      2946048                       # Cumulative packet size per connected master and slave (bytes)
system.tol2bus.pkt_size_system.cpu3.dcache.mem_side::system.l2.cpu_side     77446144                       # Cumulative packet size per connected master and slave (bytes)
system.tol2bus.pkt_size::total              348199040                       # Cumulative packet size per connected master and slave (bytes)
system.tol2bus.snoops                         6750000                       # Total snoops (count)
system.tol2bus.snoopTraffic                  27875904                       # Total snoop traffic (bytes)
system.tol2bus.snoop_fanout::samples          9480801                       # Request fanout histogram
system.tol2bus.snoop_fanout::mean            0.345677                       # Request fanout histogram
system.tol2bus.snoop_fanout::stdev           0.644145                       # Request fanout histogram
system.tol2bus.snoop_fanout::underflows             0      0.00%      0.00% # Request fanout histogram
system.tol2bus.snoop_fanout::0                6837542     72.12%     72.12% # Request fanout histogram
system.tol2bus.snoop_fanout::1                2233561     23.56%     95.68% # Request fanout histogram
system.tol2bus.snoop_fanout::2                 221679      2.34%     98.02% # Request fanout histogram
system.tol2bus.snoop_fanout::3                 151700      1.60%     99.62% # Request fanout histogram
system.tol2bus.snoop_fanout::4                  36319      0.38%    100.00% # Request fanout histogram
system.tol2bus.snoop_fanout::5                      0      0.00%    100.00% # Request fanout histogram
system.tol2bus.snoop_fanout::6                      0      0.00%    100.00% # Request fanout histogram
system.tol2bus.snoop_fanout::7                      0      0.00%    100.00% # Request fanout histogram
system.tol2bus.snoop_fanout::8                      0      0.00%    100.00% # Request fanout histogram
system.tol2bus.snoop_fanout::overflows              0      0.00%    100.00% # Request fanout histogram
system.tol2bus.snoop_fanout::min_value              0                       # Request fanout histogram
system.tol2bus.snoop_fanout::max_value              4                       # Request fanout histogram
system.tol2bus.snoop_fanout::total            9480801                       # Request fanout histogram
system.tol2bus.reqLayer0.occupancy         5496741187                       # Layer occupancy (ticks)
system.tol2bus.reqLayer0.utilization             12.7                       # Layer utilization (%)
system.tol2bus.respLayer5.occupancy         957104194                       # Layer occupancy (ticks)
system.tol2bus.respLayer5.utilization             2.2                       # Layer utilization (%)
system.tol2bus.respLayer4.occupancy          37461098                       # Layer occupancy (ticks)
system.tol2bus.respLayer4.utilization             0.1                       # Layer utilization (%)
system.tol2bus.respLayer7.occupancy         934459937                       # Layer occupancy (ticks)
system.tol2bus.respLayer7.utilization             2.2                       # Layer utilization (%)
system.tol2bus.respLayer6.occupancy          36891108                       # Layer occupancy (ticks)
system.tol2bus.respLayer6.utilization             0.1                       # Layer utilization (%)
system.tol2bus.respLayer1.occupancy        1062975241                       # Layer occupancy (ticks)
system.tol2bus.respLayer1.utilization             2.5                       # Layer utilization (%)
system.tol2bus.respLayer0.occupancy         163590321                       # Layer occupancy (ticks)
system.tol2bus.respLayer0.utilization             0.4                       # Layer utilization (%)
system.tol2bus.respLayer3.occupancy         971190356                       # Layer occupancy (ticks)
system.tol2bus.respLayer3.utilization             2.2                       # Layer utilization (%)
system.tol2bus.respLayer2.occupancy          37117636                       # Layer occupancy (ticks)
system.tol2bus.respLayer2.utilization             0.1                       # Layer utilization (%)
system.tol2bus.snoopLayer0.occupancy             6002                       # Layer occupancy (ticks)
system.tol2bus.snoopLayer0.utilization            0.0                       # Layer utilization (%)

---------- End Simulation Statistics   ----------
