
---------- Begin Simulation Statistics ----------
final_tick                               1047139318000                       # Number of ticks from beginning of simulation (restored from checkpoints and never reset)
host_inst_rate                                  57853                       # Simulator instruction rate (inst/s)
host_mem_usage                                 701624                       # Number of bytes of host memory used
host_op_rate                                    58042                       # Simulator op (including micro ops) rate (op/s)
host_seconds                                 19115.76                       # Real time elapsed on the host
host_tick_rate                               54778862                       # Simulator tick rate (ticks/s)
sim_freq                                 1000000000000                       # Frequency of simulated ticks
sim_insts                                  1105897839                       # Number of instructions simulated
sim_ops                                    1109523203                       # Number of ops (including micro ops) simulated
sim_seconds                                  1.047139                       # Number of seconds simulated
sim_ticks                                1047139318000                       # Number of ticks simulated
system.cpu0.branchPred.BTBCorrect                   0                       # Number of correct BTB predictions (this stat may not work properly.
system.cpu0.branchPred.BTBHitPct            87.698909                       # BTB Hit Percentage
system.cpu0.branchPred.BTBHits              143608489                       # Number of BTB hits
system.cpu0.branchPred.BTBLookups           163751739                       # Number of BTB lookups
system.cpu0.branchPred.RASInCorrect                 0                       # Number of incorrect RAS predictions.
system.cpu0.branchPred.condIncorrect         12771791                       # Number of conditional branches incorrect
system.cpu0.branchPred.condPredicted        224171112                       # Number of conditional branches predicted
system.cpu0.branchPred.indirectHits          18467921                       # Number of indirect target hits.
system.cpu0.branchPred.indirectLookups       18589674                       # Number of indirect predictor lookups.
system.cpu0.branchPred.indirectMisses          121753                       # Number of indirect misses.
system.cpu0.branchPred.lookups              285371995                       # Number of BP lookups
system.cpu0.branchPred.usedRAS                      0                       # Number of times the RAS was used to get a target.
system.cpu0.branchPredindirectMispredicted      1863835                       # Number of mispredicted indirect branches.
system.cpu0.commit.amos                       1811476                       # Number of atomic instructions committed
system.cpu0.commit.branchMispredicts          8483464                       # The number of times a branch was mispredicted
system.cpu0.commit.branches                 260701415                       # Number of branches committed
system.cpu0.commit.bw_lim_events             29640620                       # number cycles where commit BW limit reached
system.cpu0.commit.commitNonSpecStalls        5441376                       # The number of times commit has been forced to stall to communicate backwards
system.cpu0.commit.commitSquashedInsts       90618296                       # The number of squashed insts skipped by commit
system.cpu0.commit.committedInsts          1050805683                       # Number of instructions committed
system.cpu0.commit.committedOps            1052619670                       # Number of ops (including micro ops) committed
system.cpu0.commit.committed_per_cycle::samples   1931973101                       # Number of insts commited each cycle
system.cpu0.commit.committed_per_cycle::mean     0.544842                       # Number of insts commited each cycle
system.cpu0.commit.committed_per_cycle::stdev     1.304942                       # Number of insts commited each cycle
system.cpu0.commit.committed_per_cycle::underflows            0      0.00%      0.00% # Number of insts commited each cycle
system.cpu0.commit.committed_per_cycle::0   1414980789     73.24%     73.24% # Number of insts commited each cycle
system.cpu0.commit.committed_per_cycle::1    315547394     16.33%     89.57% # Number of insts commited each cycle
system.cpu0.commit.committed_per_cycle::2     71117624      3.68%     93.25% # Number of insts commited each cycle
system.cpu0.commit.committed_per_cycle::3     67590577      3.50%     96.75% # Number of insts commited each cycle
system.cpu0.commit.committed_per_cycle::4     19870246      1.03%     97.78% # Number of insts commited each cycle
system.cpu0.commit.committed_per_cycle::5      7336367      0.38%     98.16% # Number of insts commited each cycle
system.cpu0.commit.committed_per_cycle::6      2448870      0.13%     98.29% # Number of insts commited each cycle
system.cpu0.commit.committed_per_cycle::7      3440614      0.18%     98.47% # Number of insts commited each cycle
system.cpu0.commit.committed_per_cycle::8     29640620      1.53%    100.00% # Number of insts commited each cycle
system.cpu0.commit.committed_per_cycle::overflows            0      0.00%    100.00% # Number of insts commited each cycle
system.cpu0.commit.committed_per_cycle::min_value            0                       # Number of insts commited each cycle
system.cpu0.commit.committed_per_cycle::max_value            8                       # Number of insts commited each cycle
system.cpu0.commit.committed_per_cycle::total   1931973101                       # Number of insts commited each cycle
system.cpu0.commit.fp_insts                        46                       # Number of committed floating point instructions.
system.cpu0.commit.function_calls            20858175                       # Number of function calls committed.
system.cpu0.commit.int_insts               1015991707                       # Number of committed integer instructions.
system.cpu0.commit.loads                    326229824                       # Number of loads committed
system.cpu0.commit.membars                    3625342                       # Number of memory barriers committed
system.cpu0.commit.op_class_0::No_OpClass      3625348      0.34%      0.34% # Class of committed instruction
system.cpu0.commit.op_class_0::IntAlu       583948543     55.48%     55.82% # Class of committed instruction
system.cpu0.commit.op_class_0::IntMult        8030359      0.76%     56.58% # Class of committed instruction
system.cpu0.commit.op_class_0::IntDiv         1811037      0.17%     56.76% # Class of committed instruction
system.cpu0.commit.op_class_0::FloatAdd             0      0.00%     56.76% # Class of committed instruction
system.cpu0.commit.op_class_0::FloatCmp             4      0.00%     56.76% # Class of committed instruction
system.cpu0.commit.op_class_0::FloatCvt            12      0.00%     56.76% # Class of committed instruction
system.cpu0.commit.op_class_0::FloatMult            0      0.00%     56.76% # Class of committed instruction
system.cpu0.commit.op_class_0::FloatMultAcc            0      0.00%     56.76% # Class of committed instruction
system.cpu0.commit.op_class_0::FloatDiv             2      0.00%     56.76% # Class of committed instruction
system.cpu0.commit.op_class_0::FloatMisc            4      0.00%     56.76% # Class of committed instruction
system.cpu0.commit.op_class_0::FloatSqrt            0      0.00%     56.76% # Class of committed instruction
system.cpu0.commit.op_class_0::SimdAdd              0      0.00%     56.76% # Class of committed instruction
system.cpu0.commit.op_class_0::SimdAddAcc            0      0.00%     56.76% # Class of committed instruction
system.cpu0.commit.op_class_0::SimdAlu              0      0.00%     56.76% # Class of committed instruction
system.cpu0.commit.op_class_0::SimdCmp              0      0.00%     56.76% # Class of committed instruction
system.cpu0.commit.op_class_0::SimdCvt              0      0.00%     56.76% # Class of committed instruction
system.cpu0.commit.op_class_0::SimdMisc             0      0.00%     56.76% # Class of committed instruction
system.cpu0.commit.op_class_0::SimdMult             0      0.00%     56.76% # Class of committed instruction
system.cpu0.commit.op_class_0::SimdMultAcc            0      0.00%     56.76% # Class of committed instruction
system.cpu0.commit.op_class_0::SimdShift            0      0.00%     56.76% # Class of committed instruction
system.cpu0.commit.op_class_0::SimdShiftAcc            0      0.00%     56.76% # Class of committed instruction
system.cpu0.commit.op_class_0::SimdDiv              0      0.00%     56.76% # Class of committed instruction
system.cpu0.commit.op_class_0::SimdSqrt             0      0.00%     56.76% # Class of committed instruction
system.cpu0.commit.op_class_0::SimdFloatAdd            0      0.00%     56.76% # Class of committed instruction
system.cpu0.commit.op_class_0::SimdFloatAlu            0      0.00%     56.76% # Class of committed instruction
system.cpu0.commit.op_class_0::SimdFloatCmp            0      0.00%     56.76% # Class of committed instruction
system.cpu0.commit.op_class_0::SimdFloatCvt            0      0.00%     56.76% # Class of committed instruction
system.cpu0.commit.op_class_0::SimdFloatDiv            0      0.00%     56.76% # Class of committed instruction
system.cpu0.commit.op_class_0::SimdFloatMisc            0      0.00%     56.76% # Class of committed instruction
system.cpu0.commit.op_class_0::SimdFloatMult            0      0.00%     56.76% # Class of committed instruction
system.cpu0.commit.op_class_0::SimdFloatMultAcc            0      0.00%     56.76% # Class of committed instruction
system.cpu0.commit.op_class_0::SimdFloatSqrt            0      0.00%     56.76% # Class of committed instruction
system.cpu0.commit.op_class_0::SimdReduceAdd            0      0.00%     56.76% # Class of committed instruction
system.cpu0.commit.op_class_0::SimdReduceAlu            0      0.00%     56.76% # Class of committed instruction
system.cpu0.commit.op_class_0::SimdReduceCmp            0      0.00%     56.76% # Class of committed instruction
system.cpu0.commit.op_class_0::SimdFloatReduceAdd            0      0.00%     56.76% # Class of committed instruction
system.cpu0.commit.op_class_0::SimdFloatReduceCmp            0      0.00%     56.76% # Class of committed instruction
system.cpu0.commit.op_class_0::SimdAes              0      0.00%     56.76% # Class of committed instruction
system.cpu0.commit.op_class_0::SimdAesMix            0      0.00%     56.76% # Class of committed instruction
system.cpu0.commit.op_class_0::SimdSha1Hash            0      0.00%     56.76% # Class of committed instruction
system.cpu0.commit.op_class_0::SimdSha1Hash2            0      0.00%     56.76% # Class of committed instruction
system.cpu0.commit.op_class_0::SimdSha256Hash            0      0.00%     56.76% # Class of committed instruction
system.cpu0.commit.op_class_0::SimdSha256Hash2            0      0.00%     56.76% # Class of committed instruction
system.cpu0.commit.op_class_0::SimdShaSigma2            0      0.00%     56.76% # Class of committed instruction
system.cpu0.commit.op_class_0::SimdShaSigma3            0      0.00%     56.76% # Class of committed instruction
system.cpu0.commit.op_class_0::SimdPredAlu            0      0.00%     56.76% # Class of committed instruction
system.cpu0.commit.op_class_0::MemRead      328041292     31.16%     87.92% # Class of committed instruction
system.cpu0.commit.op_class_0::MemWrite     127163045     12.08%    100.00% # Class of committed instruction
system.cpu0.commit.op_class_0::FloatMemRead            8      0.00%    100.00% # Class of committed instruction
system.cpu0.commit.op_class_0::FloatMemWrite           16      0.00%    100.00% # Class of committed instruction
system.cpu0.commit.op_class_0::IprAccess            0      0.00%    100.00% # Class of committed instruction
system.cpu0.commit.op_class_0::InstPrefetch            0      0.00%    100.00% # Class of committed instruction
system.cpu0.commit.op_class_0::total       1052619670                       # Class of committed instruction
system.cpu0.commit.refs                     455204361                       # Number of memory references committed
system.cpu0.commit.swp_count                        0                       # Number of s/w prefetches committed
system.cpu0.commit.vec_insts                        0                       # Number of committed Vector instructions.
system.cpu0.committedInsts                 1050805683                       # Number of Instructions Simulated
system.cpu0.committedOps                   1052619670                       # Number of Ops (including micro ops) Simulated
system.cpu0.cpi                              1.988527                       # CPI: Cycles Per Instruction
system.cpu0.cpi_total                        1.988527                       # CPI: Total CPI of All Threads
system.cpu0.decode.BlockedCycles            331490954                       # Number of cycles decode is blocked
system.cpu0.decode.BranchMispred              4296619                       # Number of times decode detected a branch misprediction
system.cpu0.decode.BranchResolved           142068297                       # Number of times decode resolved a branch
system.cpu0.decode.DecodedInsts            1166697973                       # Number of instructions handled by decode
system.cpu0.decode.IdleCycles               802729553                       # Number of cycles decode is idle
system.cpu0.decode.RunCycles                800438092                       # Number of cycles decode is running
system.cpu0.decode.SquashCycles               8495361                       # Number of cycles decode is squashing
system.cpu0.decode.SquashedInsts              7874416                       # Number of squashed instructions handled by decode
system.cpu0.decode.UnblockCycles              5611866                       # Number of cycles decode is unblocking
system.cpu0.dtb.accesses                            0                       # DTB accesses
system.cpu0.dtb.hits                                0                       # DTB hits
system.cpu0.dtb.misses                              0                       # DTB misses
system.cpu0.dtb.read_accesses                       0                       # DTB read accesses
system.cpu0.dtb.read_hits                           0                       # DTB read hits
system.cpu0.dtb.read_misses                         0                       # DTB read misses
system.cpu0.dtb.write_accesses                      0                       # DTB write accesses
system.cpu0.dtb.write_hits                          0                       # DTB write hits
system.cpu0.dtb.write_misses                        0                       # DTB write misses
system.cpu0.fetch.Branches                  285371995                       # Number of branches that fetch encountered
system.cpu0.fetch.CacheLines                204522738                       # Number of cache lines fetched
system.cpu0.fetch.Cycles                   1139631082                       # Number of cycles fetch has run and was not squashing or blocked
system.cpu0.fetch.IcacheSquashes              5623740                       # Number of outstanding Icache misses that were squashed
system.cpu0.fetch.IcacheWaitRetryStallCycles           99                       # Number of stall cycles due to full MSHR
system.cpu0.fetch.Insts                    1191109805                       # Number of instructions fetch has processed
system.cpu0.fetch.MiscStallCycles                 109                       # Number of cycles fetch has spent waiting on interrupts, or bad addresses, or out of MSHRs
system.cpu0.fetch.SquashCycles               25567376                       # Number of cycles fetch has spent squashing
system.cpu0.fetch.branchRate                 0.136571                       # Number of branch fetches per cycle
system.cpu0.fetch.icacheStallCycles         796350848                       # Number of cycles fetch is stalled on an Icache miss
system.cpu0.fetch.predictedBranches         162076410                       # Number of branches that fetch has predicted taken
system.cpu0.fetch.rate                       0.570030                       # Number of inst fetches per cycle
system.cpu0.fetch.rateDist::samples        1948765826                       # Number of instructions fetched each cycle (Total)
system.cpu0.fetch.rateDist::mean             0.613754                       # Number of instructions fetched each cycle (Total)
system.cpu0.fetch.rateDist::stdev            0.904405                       # Number of instructions fetched each cycle (Total)
system.cpu0.fetch.rateDist::underflows              0      0.00%      0.00% # Number of instructions fetched each cycle (Total)
system.cpu0.fetch.rateDist::0              1106914873     56.80%     56.80% # Number of instructions fetched each cycle (Total)
system.cpu0.fetch.rateDist::1               618122379     31.72%     88.52% # Number of instructions fetched each cycle (Total)
system.cpu0.fetch.rateDist::2               134561121      6.90%     95.42% # Number of instructions fetched each cycle (Total)
system.cpu0.fetch.rateDist::3                69364647      3.56%     98.98% # Number of instructions fetched each cycle (Total)
system.cpu0.fetch.rateDist::4                 9200443      0.47%     99.46% # Number of instructions fetched each cycle (Total)
system.cpu0.fetch.rateDist::5                 5347064      0.27%     99.73% # Number of instructions fetched each cycle (Total)
system.cpu0.fetch.rateDist::6                 1519544      0.08%     99.81% # Number of instructions fetched each cycle (Total)
system.cpu0.fetch.rateDist::7                 1816533      0.09%     99.90% # Number of instructions fetched each cycle (Total)
system.cpu0.fetch.rateDist::8                 1919222      0.10%    100.00% # Number of instructions fetched each cycle (Total)
system.cpu0.fetch.rateDist::overflows               0      0.00%    100.00% # Number of instructions fetched each cycle (Total)
system.cpu0.fetch.rateDist::min_value               0                       # Number of instructions fetched each cycle (Total)
system.cpu0.fetch.rateDist::max_value               8                       # Number of instructions fetched each cycle (Total)
system.cpu0.fetch.rateDist::total          1948765826                       # Number of instructions fetched each cycle (Total)
system.cpu0.fp_regfile_reads                       40                       # number of floating regfile reads
system.cpu0.fp_regfile_writes                      51                       # number of floating regfile writes
system.cpu0.idleCycles                      140789286                       # Total number of cycles that the CPU has spent unscheduled due to idling
system.cpu0.iew.branchMispredicts             8590251                       # Number of branch mispredicts detected at execute
system.cpu0.iew.exec_branches               269630154                       # Number of branches executed
system.cpu0.iew.exec_nop                            0                       # number of nop insts executed
system.cpu0.iew.exec_rate                    0.529026                       # Inst execution rate
system.cpu0.iew.exec_refs                   483528761                       # number of memory reference insts executed
system.cpu0.iew.exec_stores                 133926245                       # Number of stores executed
system.cpu0.iew.exec_swp                            0                       # number of swp insts executed
system.cpu0.iew.iewBlockCycles              263606272                       # Number of cycles IEW is blocking
system.cpu0.iew.iewDispLoadInsts            359447890                       # Number of dispatched load instructions
system.cpu0.iew.iewDispNonSpecInsts           3589397                       # Number of dispatched non-speculative instructions
system.cpu0.iew.iewDispSquashedInsts          3439782                       # Number of squashed instructions skipped by dispatch
system.cpu0.iew.iewDispStoreInsts           140253882                       # Number of dispatched store instructions
system.cpu0.iew.iewDispatchedInsts         1143219095                       # Number of instructions dispatched to IQ
system.cpu0.iew.iewExecLoadInsts            349602516                       # Number of load instructions executed
system.cpu0.iew.iewExecSquashedInsts          8047673                       # Number of squashed instructions skipped in execute
system.cpu0.iew.iewExecutedInsts           1105428103                       # Number of executed instructions
system.cpu0.iew.iewIQFullEvents               1997872                       # Number of times the IQ has become full, causing a stall
system.cpu0.iew.iewIdleCycles                       0                       # Number of cycles IEW is idle
system.cpu0.iew.iewLSQFullEvents              5907255                       # Number of times the LSQ has become full, causing a stall
system.cpu0.iew.iewSquashCycles               8495361                       # Number of cycles IEW is squashing
system.cpu0.iew.iewUnblockCycles              9966689                       # Number of cycles IEW is unblocking
system.cpu0.iew.lsq.thread0.blockedLoads            0                       # Number of blocked loads due to partial load-store forwarding
system.cpu0.iew.lsq.thread0.cacheBlocked       135000                       # Number of times an access to memory failed due to the cache being blocked
system.cpu0.iew.lsq.thread0.forwLoads        16187411                       # Number of loads that had data forwarded from stores
system.cpu0.iew.lsq.thread0.ignoredResponses        45736                       # Number of memory responses ignored because the instruction is squashed
system.cpu0.iew.lsq.thread0.invAddrLoads            0                       # Number of loads ignored due to an invalid address
system.cpu0.iew.lsq.thread0.invAddrSwpfs            0                       # Number of software prefetches ignored due to an invalid address
system.cpu0.iew.lsq.thread0.memOrderViolation        13432                       # Number of memory ordering violations
system.cpu0.iew.lsq.thread0.rescheduledLoads      4301129                       # Number of loads that were rescheduled
system.cpu0.iew.lsq.thread0.squashedLoads     33218066                       # Number of loads squashed
system.cpu0.iew.lsq.thread0.squashedStores     11279345                       # Number of stores squashed
system.cpu0.iew.memOrderViolationEvents         13432                       # Number of memory order violations
system.cpu0.iew.predictedNotTakenIncorrect      1159261                       # Number of branches that were predicted not taken incorrectly
system.cpu0.iew.predictedTakenIncorrect       7430990                       # Number of branches that were predicted taken incorrectly
system.cpu0.iew.wb_consumers                457227772                       # num instructions consuming a value
system.cpu0.iew.wb_count                   1095342742                       # cumulative count of insts written-back
system.cpu0.iew.wb_fanout                    0.881981                       # average fanout of values written-back
system.cpu0.iew.wb_producers                403266349                       # num instructions producing a value
system.cpu0.iew.wb_rate                      0.524199                       # insts written-back per cycle
system.cpu0.iew.wb_sent                    1095435954                       # cumulative count of insts sent to commit
system.cpu0.int_regfile_reads              1351529805                       # number of integer regfile reads
system.cpu0.int_regfile_writes              699886444                       # number of integer regfile writes
system.cpu0.ipc                              0.502885                       # IPC: Instructions Per Cycle
system.cpu0.ipc_total                        0.502885                       # IPC: Total IPC of All Threads
system.cpu0.iq.FU_type_0::No_OpClass          3626919      0.33%      0.33% # Type of FU issued
system.cpu0.iq.FU_type_0::IntAlu            611860941     54.95%     55.28% # Type of FU issued
system.cpu0.iq.FU_type_0::IntMult             8035298      0.72%     56.00% # Type of FU issued
system.cpu0.iq.FU_type_0::IntDiv              1811552      0.16%     56.16% # Type of FU issued
system.cpu0.iq.FU_type_0::FloatAdd                  0      0.00%     56.16% # Type of FU issued
system.cpu0.iq.FU_type_0::FloatCmp                  4      0.00%     56.16% # Type of FU issued
system.cpu0.iq.FU_type_0::FloatCvt                 12      0.00%     56.16% # Type of FU issued
system.cpu0.iq.FU_type_0::FloatMult                 0      0.00%     56.16% # Type of FU issued
system.cpu0.iq.FU_type_0::FloatMultAcc              0      0.00%     56.16% # Type of FU issued
system.cpu0.iq.FU_type_0::FloatDiv                  2      0.00%     56.16% # Type of FU issued
system.cpu0.iq.FU_type_0::FloatMisc                 4      0.00%     56.16% # Type of FU issued
system.cpu0.iq.FU_type_0::FloatSqrt                 0      0.00%     56.16% # Type of FU issued
system.cpu0.iq.FU_type_0::SimdAdd                   0      0.00%     56.16% # Type of FU issued
system.cpu0.iq.FU_type_0::SimdAddAcc                0      0.00%     56.16% # Type of FU issued
system.cpu0.iq.FU_type_0::SimdAlu                   0      0.00%     56.16% # Type of FU issued
system.cpu0.iq.FU_type_0::SimdCmp                   0      0.00%     56.16% # Type of FU issued
system.cpu0.iq.FU_type_0::SimdCvt                   0      0.00%     56.16% # Type of FU issued
system.cpu0.iq.FU_type_0::SimdMisc                  0      0.00%     56.16% # Type of FU issued
system.cpu0.iq.FU_type_0::SimdMult                  0      0.00%     56.16% # Type of FU issued
system.cpu0.iq.FU_type_0::SimdMultAcc               0      0.00%     56.16% # Type of FU issued
system.cpu0.iq.FU_type_0::SimdShift                 0      0.00%     56.16% # Type of FU issued
system.cpu0.iq.FU_type_0::SimdShiftAcc              0      0.00%     56.16% # Type of FU issued
system.cpu0.iq.FU_type_0::SimdDiv                   0      0.00%     56.16% # Type of FU issued
system.cpu0.iq.FU_type_0::SimdSqrt                  0      0.00%     56.16% # Type of FU issued
system.cpu0.iq.FU_type_0::SimdFloatAdd              0      0.00%     56.16% # Type of FU issued
system.cpu0.iq.FU_type_0::SimdFloatAlu              0      0.00%     56.16% # Type of FU issued
system.cpu0.iq.FU_type_0::SimdFloatCmp              0      0.00%     56.16% # Type of FU issued
system.cpu0.iq.FU_type_0::SimdFloatCvt              0      0.00%     56.16% # Type of FU issued
system.cpu0.iq.FU_type_0::SimdFloatDiv              0      0.00%     56.16% # Type of FU issued
system.cpu0.iq.FU_type_0::SimdFloatMisc             0      0.00%     56.16% # Type of FU issued
system.cpu0.iq.FU_type_0::SimdFloatMult             0      0.00%     56.16% # Type of FU issued
system.cpu0.iq.FU_type_0::SimdFloatMultAcc            0      0.00%     56.16% # Type of FU issued
system.cpu0.iq.FU_type_0::SimdFloatSqrt             0      0.00%     56.16% # Type of FU issued
system.cpu0.iq.FU_type_0::SimdReduceAdd             0      0.00%     56.16% # Type of FU issued
system.cpu0.iq.FU_type_0::SimdReduceAlu             0      0.00%     56.16% # Type of FU issued
system.cpu0.iq.FU_type_0::SimdReduceCmp             0      0.00%     56.16% # Type of FU issued
system.cpu0.iq.FU_type_0::SimdFloatReduceAdd            0      0.00%     56.16% # Type of FU issued
system.cpu0.iq.FU_type_0::SimdFloatReduceCmp            0      0.00%     56.16% # Type of FU issued
system.cpu0.iq.FU_type_0::SimdAes                   0      0.00%     56.16% # Type of FU issued
system.cpu0.iq.FU_type_0::SimdAesMix                0      0.00%     56.16% # Type of FU issued
system.cpu0.iq.FU_type_0::SimdSha1Hash              0      0.00%     56.16% # Type of FU issued
system.cpu0.iq.FU_type_0::SimdSha1Hash2             0      0.00%     56.16% # Type of FU issued
system.cpu0.iq.FU_type_0::SimdSha256Hash            0      0.00%     56.16% # Type of FU issued
system.cpu0.iq.FU_type_0::SimdSha256Hash2            0      0.00%     56.16% # Type of FU issued
system.cpu0.iq.FU_type_0::SimdShaSigma2             0      0.00%     56.16% # Type of FU issued
system.cpu0.iq.FU_type_0::SimdShaSigma3             0      0.00%     56.16% # Type of FU issued
system.cpu0.iq.FU_type_0::SimdPredAlu               0      0.00%     56.16% # Type of FU issued
system.cpu0.iq.FU_type_0::MemRead           354383020     31.83%     87.99% # Type of FU issued
system.cpu0.iq.FU_type_0::MemWrite          133757945     12.01%    100.00% # Type of FU issued
system.cpu0.iq.FU_type_0::FloatMemRead             64      0.00%    100.00% # Type of FU issued
system.cpu0.iq.FU_type_0::FloatMemWrite            16      0.00%    100.00% # Type of FU issued
system.cpu0.iq.FU_type_0::IprAccess                 0      0.00%    100.00% # Type of FU issued
system.cpu0.iq.FU_type_0::InstPrefetch              0      0.00%    100.00% # Type of FU issued
system.cpu0.iq.FU_type_0::total            1113475777                       # Type of FU issued
system.cpu0.iq.fp_alu_accesses                    104                       # Number of floating point alu accesses
system.cpu0.iq.fp_inst_queue_reads                207                       # Number of floating instruction queue reads
system.cpu0.iq.fp_inst_queue_wakeup_accesses           75                       # Number of floating instruction queue wakeup accesses
system.cpu0.iq.fp_inst_queue_writes               322                       # Number of floating instruction queue writes
system.cpu0.iq.fu_busy_cnt                    2327436                       # FU busy when requested
system.cpu0.iq.fu_busy_rate                  0.002090                       # FU busy rate (busy events/executed inst)
system.cpu0.iq.fu_full::No_OpClass                  0      0.00%      0.00% # attempts to use FU when none available
system.cpu0.iq.fu_full::IntAlu                 457583     19.66%     19.66% # attempts to use FU when none available
system.cpu0.iq.fu_full::IntMult                     0      0.00%     19.66% # attempts to use FU when none available
system.cpu0.iq.fu_full::IntDiv                      0      0.00%     19.66% # attempts to use FU when none available
system.cpu0.iq.fu_full::FloatAdd                    0      0.00%     19.66% # attempts to use FU when none available
system.cpu0.iq.fu_full::FloatCmp                    0      0.00%     19.66% # attempts to use FU when none available
system.cpu0.iq.fu_full::FloatCvt                    0      0.00%     19.66% # attempts to use FU when none available
system.cpu0.iq.fu_full::FloatMult                   0      0.00%     19.66% # attempts to use FU when none available
system.cpu0.iq.fu_full::FloatMultAcc                0      0.00%     19.66% # attempts to use FU when none available
system.cpu0.iq.fu_full::FloatDiv                    0      0.00%     19.66% # attempts to use FU when none available
system.cpu0.iq.fu_full::FloatMisc                   0      0.00%     19.66% # attempts to use FU when none available
system.cpu0.iq.fu_full::FloatSqrt                   0      0.00%     19.66% # attempts to use FU when none available
system.cpu0.iq.fu_full::SimdAdd                     0      0.00%     19.66% # attempts to use FU when none available
system.cpu0.iq.fu_full::SimdAddAcc                  0      0.00%     19.66% # attempts to use FU when none available
system.cpu0.iq.fu_full::SimdAlu                     0      0.00%     19.66% # attempts to use FU when none available
system.cpu0.iq.fu_full::SimdCmp                     0      0.00%     19.66% # attempts to use FU when none available
system.cpu0.iq.fu_full::SimdCvt                     0      0.00%     19.66% # attempts to use FU when none available
system.cpu0.iq.fu_full::SimdMisc                    0      0.00%     19.66% # attempts to use FU when none available
system.cpu0.iq.fu_full::SimdMult                    0      0.00%     19.66% # attempts to use FU when none available
system.cpu0.iq.fu_full::SimdMultAcc                 0      0.00%     19.66% # attempts to use FU when none available
system.cpu0.iq.fu_full::SimdShift                   0      0.00%     19.66% # attempts to use FU when none available
system.cpu0.iq.fu_full::SimdShiftAcc                0      0.00%     19.66% # attempts to use FU when none available
system.cpu0.iq.fu_full::SimdDiv                     0      0.00%     19.66% # attempts to use FU when none available
system.cpu0.iq.fu_full::SimdSqrt                    0      0.00%     19.66% # attempts to use FU when none available
system.cpu0.iq.fu_full::SimdFloatAdd                0      0.00%     19.66% # attempts to use FU when none available
system.cpu0.iq.fu_full::SimdFloatAlu                0      0.00%     19.66% # attempts to use FU when none available
system.cpu0.iq.fu_full::SimdFloatCmp                0      0.00%     19.66% # attempts to use FU when none available
system.cpu0.iq.fu_full::SimdFloatCvt                0      0.00%     19.66% # attempts to use FU when none available
system.cpu0.iq.fu_full::SimdFloatDiv                0      0.00%     19.66% # attempts to use FU when none available
system.cpu0.iq.fu_full::SimdFloatMisc               0      0.00%     19.66% # attempts to use FU when none available
system.cpu0.iq.fu_full::SimdFloatMult               0      0.00%     19.66% # attempts to use FU when none available
system.cpu0.iq.fu_full::SimdFloatMultAcc            0      0.00%     19.66% # attempts to use FU when none available
system.cpu0.iq.fu_full::SimdFloatSqrt               0      0.00%     19.66% # attempts to use FU when none available
system.cpu0.iq.fu_full::SimdReduceAdd               0      0.00%     19.66% # attempts to use FU when none available
system.cpu0.iq.fu_full::SimdReduceAlu               0      0.00%     19.66% # attempts to use FU when none available
system.cpu0.iq.fu_full::SimdReduceCmp               0      0.00%     19.66% # attempts to use FU when none available
system.cpu0.iq.fu_full::SimdFloatReduceAdd            0      0.00%     19.66% # attempts to use FU when none available
system.cpu0.iq.fu_full::SimdFloatReduceCmp            0      0.00%     19.66% # attempts to use FU when none available
system.cpu0.iq.fu_full::SimdAes                     0      0.00%     19.66% # attempts to use FU when none available
system.cpu0.iq.fu_full::SimdAesMix                  0      0.00%     19.66% # attempts to use FU when none available
system.cpu0.iq.fu_full::SimdSha1Hash                0      0.00%     19.66% # attempts to use FU when none available
system.cpu0.iq.fu_full::SimdSha1Hash2               0      0.00%     19.66% # attempts to use FU when none available
system.cpu0.iq.fu_full::SimdSha256Hash              0      0.00%     19.66% # attempts to use FU when none available
system.cpu0.iq.fu_full::SimdSha256Hash2             0      0.00%     19.66% # attempts to use FU when none available
system.cpu0.iq.fu_full::SimdShaSigma2               0      0.00%     19.66% # attempts to use FU when none available
system.cpu0.iq.fu_full::SimdShaSigma3               0      0.00%     19.66% # attempts to use FU when none available
system.cpu0.iq.fu_full::SimdPredAlu                 0      0.00%     19.66% # attempts to use FU when none available
system.cpu0.iq.fu_full::MemRead               1666857     71.62%     91.28% # attempts to use FU when none available
system.cpu0.iq.fu_full::MemWrite               202994      8.72%    100.00% # attempts to use FU when none available
system.cpu0.iq.fu_full::FloatMemRead                0      0.00%    100.00% # attempts to use FU when none available
system.cpu0.iq.fu_full::FloatMemWrite               2      0.00%    100.00% # attempts to use FU when none available
system.cpu0.iq.fu_full::IprAccess                   0      0.00%    100.00% # attempts to use FU when none available
system.cpu0.iq.fu_full::InstPrefetch                0      0.00%    100.00% # attempts to use FU when none available
system.cpu0.iq.int_alu_accesses            1112176190                       # Number of integer alu accesses
system.cpu0.iq.int_inst_queue_reads        4178185796                       # Number of integer instruction queue reads
system.cpu0.iq.int_inst_queue_wakeup_accesses   1095342667                       # Number of integer instruction queue wakeup accesses
system.cpu0.iq.int_inst_queue_writes       1233830750                       # Number of integer instruction queue writes
system.cpu0.iq.iqInstsAdded                1132457782                       # Number of instructions added to the IQ (excludes non-spec)
system.cpu0.iq.iqInstsIssued               1113475777                       # Number of instructions issued
system.cpu0.iq.iqNonSpecInstsAdded           10761313                       # Number of non-speculative instructions added to the IQ
system.cpu0.iq.iqSquashedInstsExamined       90599421                       # Number of squashed instructions iterated over during squash; mainly for profiling
system.cpu0.iq.iqSquashedInstsIssued           141188                       # Number of squashed instructions issued
system.cpu0.iq.iqSquashedNonSpecRemoved       5319937                       # Number of squashed non-spec instructions that were removed
system.cpu0.iq.iqSquashedOperandsExamined     50117010                       # Number of squashed operands that are examined and possibly removed from graph
system.cpu0.iq.issued_per_cycle::samples   1948765826                       # Number of insts issued each cycle
system.cpu0.iq.issued_per_cycle::mean        0.571375                       # Number of insts issued each cycle
system.cpu0.iq.issued_per_cycle::stdev       0.801666                       # Number of insts issued each cycle
system.cpu0.iq.issued_per_cycle::underflows            0      0.00%      0.00% # Number of insts issued each cycle
system.cpu0.iq.issued_per_cycle::0         1139489798     58.47%     58.47% # Number of insts issued each cycle
system.cpu0.iq.issued_per_cycle::1          564538354     28.97%     87.44% # Number of insts issued each cycle
system.cpu0.iq.issued_per_cycle::2          201093830     10.32%     97.76% # Number of insts issued each cycle
system.cpu0.iq.issued_per_cycle::3           33366789      1.71%     99.47% # Number of insts issued each cycle
system.cpu0.iq.issued_per_cycle::4            6572766      0.34%     99.81% # Number of insts issued each cycle
system.cpu0.iq.issued_per_cycle::5            2419274      0.12%     99.93% # Number of insts issued each cycle
system.cpu0.iq.issued_per_cycle::6             896728      0.05%     99.98% # Number of insts issued each cycle
system.cpu0.iq.issued_per_cycle::7             224702      0.01%     99.99% # Number of insts issued each cycle
system.cpu0.iq.issued_per_cycle::8             163585      0.01%    100.00% # Number of insts issued each cycle
system.cpu0.iq.issued_per_cycle::overflows            0      0.00%    100.00% # Number of insts issued each cycle
system.cpu0.iq.issued_per_cycle::min_value            0                       # Number of insts issued each cycle
system.cpu0.iq.issued_per_cycle::max_value            8                       # Number of insts issued each cycle
system.cpu0.iq.issued_per_cycle::total     1948765826                       # Number of insts issued each cycle
system.cpu0.iq.rate                          0.532877                       # Inst issue rate
system.cpu0.iq.vec_alu_accesses                     0                       # Number of vector alu accesses
system.cpu0.iq.vec_inst_queue_reads                 0                       # Number of vector instruction queue reads
system.cpu0.iq.vec_inst_queue_wakeup_accesses            0                       # Number of vector instruction queue wakeup accesses
system.cpu0.iq.vec_inst_queue_writes                0                       # Number of vector instruction queue writes
system.cpu0.itb.accesses                            0                       # DTB accesses
system.cpu0.itb.hits                                0                       # DTB hits
system.cpu0.itb.misses                              0                       # DTB misses
system.cpu0.itb.read_accesses                       0                       # DTB read accesses
system.cpu0.itb.read_hits                           0                       # DTB read hits
system.cpu0.itb.read_misses                         0                       # DTB read misses
system.cpu0.itb.write_accesses                      0                       # DTB write accesses
system.cpu0.itb.write_hits                          0                       # DTB write hits
system.cpu0.itb.write_misses                        0                       # DTB write misses
system.cpu0.memDep0.conflictingLoads         26708411                       # Number of conflicting loads.
system.cpu0.memDep0.conflictingStores         4769178                       # Number of conflicting stores.
system.cpu0.memDep0.insertedLoads           359447890                       # Number of loads inserted to the mem dependence unit.
system.cpu0.memDep0.insertedStores          140253882                       # Number of stores inserted to the mem dependence unit.
system.cpu0.misc_regfile_reads                   1501                       # number of misc regfile reads
system.cpu0.misc_regfile_writes                    22                       # number of misc regfile writes
system.cpu0.numCycles                      2089555112                       # number of cpu cycles simulated
system.cpu0.numWorkItemsCompleted                   0                       # number of work items this cpu completed
system.cpu0.numWorkItemsStarted                     0                       # number of work items this cpu started
system.cpu0.quiesceCycles                     4724418                       # Total number of cycles that CPU has spent quiesced or waiting for an interrupt
system.cpu0.rename.BlockCycles              285563981                       # Number of cycles rename is blocking
system.cpu0.rename.CommittedMaps            670645255                       # Number of HB maps that are committed
system.cpu0.rename.IQFullEvents              10906204                       # Number of times rename has blocked due to IQ full
system.cpu0.rename.IdleCycles               813783212                       # Number of cycles rename is idle
system.cpu0.rename.LQFullEvents              16891224                       # Number of times rename has blocked due to LQ full
system.cpu0.rename.ROBFullEvents                45084                       # Number of times rename has blocked due to ROB full
system.cpu0.rename.RenameLookups           1412204614                       # Number of register rename lookups that rename has made
system.cpu0.rename.RenamedInsts            1155133254                       # Number of instructions processed by rename
system.cpu0.rename.RenamedOperands          740831781                       # Number of destination operands rename has renamed
system.cpu0.rename.RunCycles                793321711                       # Number of cycles rename is running
system.cpu0.rename.SQFullEvents              18910149                       # Number of times rename has blocked due to SQ full
system.cpu0.rename.SquashCycles               8495361                       # Number of cycles rename is squashing
system.cpu0.rename.UnblockCycles             47462723                       # Number of cycles rename is unblocking
system.cpu0.rename.UndoneMaps                70186518                       # Number of HB maps that are undone due to squashing
system.cpu0.rename.fp_rename_lookups               40                       # Number of floating rename lookups
system.cpu0.rename.int_rename_lookups      1412204574                       # Number of integer rename lookups
system.cpu0.rename.serializeStallCycles        138838                       # count of cycles rename stalled for serializing inst
system.cpu0.rename.serializingInsts              4693                       # count of serializing insts renamed
system.cpu0.rename.skidInsts                 22388997                       # count of insts added to the skid buffer
system.cpu0.rename.tempSerializingInsts          4689                       # count of temporary serializing insts renamed
system.cpu0.rob.rob_reads                  3045551415                       # The number of ROB reads
system.cpu0.rob.rob_writes                 2303285948                       # The number of ROB writes
system.cpu0.timesIdled                       25777604                       # Number of times that the entire CPU went into an idle state and unscheduled itself
system.cpu0.workload.numSyscalls                 1468                       # Number of system calls
system.cpu1.branchPred.BTBCorrect                   0                       # Number of correct BTB predictions (this stat may not work properly.
system.cpu1.branchPred.BTBHitPct            95.247955                       # BTB Hit Percentage
system.cpu1.branchPred.BTBHits                9909623                       # Number of BTB hits
system.cpu1.branchPred.BTBLookups            10404027                       # Number of BTB lookups
system.cpu1.branchPred.RASInCorrect                 0                       # Number of incorrect RAS predictions.
system.cpu1.branchPred.condIncorrect          1956403                       # Number of conditional branches incorrect
system.cpu1.branchPred.condPredicted         19297661                       # Number of conditional branches predicted
system.cpu1.branchPred.indirectHits            315380                       # Number of indirect target hits.
system.cpu1.branchPred.indirectLookups         468489                       # Number of indirect predictor lookups.
system.cpu1.branchPred.indirectMisses          153109                       # Number of indirect misses.
system.cpu1.branchPred.lookups               20971427                       # Number of BP lookups
system.cpu1.branchPred.usedRAS                      0                       # Number of times the RAS was used to get a target.
system.cpu1.branchPredindirectMispredicted         4786                       # Number of mispredicted indirect branches.
system.cpu1.commit.amos                       1811199                       # Number of atomic instructions committed
system.cpu1.commit.branchMispredicts          1143273                       # The number of times a branch was mispredicted
system.cpu1.commit.branches                  12205373                       # Number of branches committed
system.cpu1.commit.bw_lim_events              1289101                       # number cycles where commit BW limit reached
system.cpu1.commit.commitNonSpecStalls        5434265                       # The number of times commit has been forced to stall to communicate backwards
system.cpu1.commit.commitSquashedInsts       22776318                       # The number of squashed insts skipped by commit
system.cpu1.commit.committedInsts            55092156                       # Number of instructions committed
system.cpu1.commit.committedOps              56903533                       # Number of ops (including micro ops) committed
system.cpu1.commit.committed_per_cycle::samples    334594925                       # Number of insts commited each cycle
system.cpu1.commit.committed_per_cycle::mean     0.170067                       # Number of insts commited each cycle
system.cpu1.commit.committed_per_cycle::stdev     0.816477                       # Number of insts commited each cycle
system.cpu1.commit.committed_per_cycle::underflows            0      0.00%      0.00% # Number of insts commited each cycle
system.cpu1.commit.committed_per_cycle::0    311237999     93.02%     93.02% # Number of insts commited each cycle
system.cpu1.commit.committed_per_cycle::1     11535385      3.45%     96.47% # Number of insts commited each cycle
system.cpu1.commit.committed_per_cycle::2      3742526      1.12%     97.59% # Number of insts commited each cycle
system.cpu1.commit.committed_per_cycle::3      3653724      1.09%     98.68% # Number of insts commited each cycle
system.cpu1.commit.committed_per_cycle::4      1005707      0.30%     98.98% # Number of insts commited each cycle
system.cpu1.commit.committed_per_cycle::5       302815      0.09%     99.07% # Number of insts commited each cycle
system.cpu1.commit.committed_per_cycle::6      1721463      0.51%     99.58% # Number of insts commited each cycle
system.cpu1.commit.committed_per_cycle::7       106205      0.03%     99.61% # Number of insts commited each cycle
system.cpu1.commit.committed_per_cycle::8      1289101      0.39%    100.00% # Number of insts commited each cycle
system.cpu1.commit.committed_per_cycle::overflows            0      0.00%    100.00% # Number of insts commited each cycle
system.cpu1.commit.committed_per_cycle::min_value            0                       # Number of insts commited each cycle
system.cpu1.commit.committed_per_cycle::max_value            8                       # Number of insts commited each cycle
system.cpu1.commit.committed_per_cycle::total    334594925                       # Number of insts commited each cycle
system.cpu1.commit.fp_insts                        12                       # Number of committed floating point instructions.
system.cpu1.commit.function_calls              502948                       # Number of function calls committed.
system.cpu1.commit.int_insts                 52989109                       # Number of committed integer instructions.
system.cpu1.commit.loads                     16128311                       # Number of loads committed
system.cpu1.commit.membars                    3622524                       # Number of memory barriers committed
system.cpu1.commit.op_class_0::No_OpClass      3622524      6.37%      6.37% # Class of committed instruction
system.cpu1.commit.op_class_0::IntAlu        32021661     56.27%     62.64% # Class of committed instruction
system.cpu1.commit.op_class_0::IntMult             43      0.00%     62.64% # Class of committed instruction
system.cpu1.commit.op_class_0::IntDiv              86      0.00%     62.64% # Class of committed instruction
system.cpu1.commit.op_class_0::FloatAdd             0      0.00%     62.64% # Class of committed instruction
system.cpu1.commit.op_class_0::FloatCmp             0      0.00%     62.64% # Class of committed instruction
system.cpu1.commit.op_class_0::FloatCvt             0      0.00%     62.64% # Class of committed instruction
system.cpu1.commit.op_class_0::FloatMult            0      0.00%     62.64% # Class of committed instruction
system.cpu1.commit.op_class_0::FloatMultAcc            0      0.00%     62.64% # Class of committed instruction
system.cpu1.commit.op_class_0::FloatDiv             0      0.00%     62.64% # Class of committed instruction
system.cpu1.commit.op_class_0::FloatMisc            0      0.00%     62.64% # Class of committed instruction
system.cpu1.commit.op_class_0::FloatSqrt            0      0.00%     62.64% # Class of committed instruction
system.cpu1.commit.op_class_0::SimdAdd              0      0.00%     62.64% # Class of committed instruction
system.cpu1.commit.op_class_0::SimdAddAcc            0      0.00%     62.64% # Class of committed instruction
system.cpu1.commit.op_class_0::SimdAlu              0      0.00%     62.64% # Class of committed instruction
system.cpu1.commit.op_class_0::SimdCmp              0      0.00%     62.64% # Class of committed instruction
system.cpu1.commit.op_class_0::SimdCvt              0      0.00%     62.64% # Class of committed instruction
system.cpu1.commit.op_class_0::SimdMisc             0      0.00%     62.64% # Class of committed instruction
system.cpu1.commit.op_class_0::SimdMult             0      0.00%     62.64% # Class of committed instruction
system.cpu1.commit.op_class_0::SimdMultAcc            0      0.00%     62.64% # Class of committed instruction
system.cpu1.commit.op_class_0::SimdShift            0      0.00%     62.64% # Class of committed instruction
system.cpu1.commit.op_class_0::SimdShiftAcc            0      0.00%     62.64% # Class of committed instruction
system.cpu1.commit.op_class_0::SimdDiv              0      0.00%     62.64% # Class of committed instruction
system.cpu1.commit.op_class_0::SimdSqrt             0      0.00%     62.64% # Class of committed instruction
system.cpu1.commit.op_class_0::SimdFloatAdd            0      0.00%     62.64% # Class of committed instruction
system.cpu1.commit.op_class_0::SimdFloatAlu            0      0.00%     62.64% # Class of committed instruction
system.cpu1.commit.op_class_0::SimdFloatCmp            0      0.00%     62.64% # Class of committed instruction
system.cpu1.commit.op_class_0::SimdFloatCvt            0      0.00%     62.64% # Class of committed instruction
system.cpu1.commit.op_class_0::SimdFloatDiv            0      0.00%     62.64% # Class of committed instruction
system.cpu1.commit.op_class_0::SimdFloatMisc            0      0.00%     62.64% # Class of committed instruction
system.cpu1.commit.op_class_0::SimdFloatMult            0      0.00%     62.64% # Class of committed instruction
system.cpu1.commit.op_class_0::SimdFloatMultAcc            0      0.00%     62.64% # Class of committed instruction
system.cpu1.commit.op_class_0::SimdFloatSqrt            0      0.00%     62.64% # Class of committed instruction
system.cpu1.commit.op_class_0::SimdReduceAdd            0      0.00%     62.64% # Class of committed instruction
system.cpu1.commit.op_class_0::SimdReduceAlu            0      0.00%     62.64% # Class of committed instruction
system.cpu1.commit.op_class_0::SimdReduceCmp            0      0.00%     62.64% # Class of committed instruction
system.cpu1.commit.op_class_0::SimdFloatReduceAdd            0      0.00%     62.64% # Class of committed instruction
system.cpu1.commit.op_class_0::SimdFloatReduceCmp            0      0.00%     62.64% # Class of committed instruction
system.cpu1.commit.op_class_0::SimdAes              0      0.00%     62.64% # Class of committed instruction
system.cpu1.commit.op_class_0::SimdAesMix            0      0.00%     62.64% # Class of committed instruction
system.cpu1.commit.op_class_0::SimdSha1Hash            0      0.00%     62.64% # Class of committed instruction
system.cpu1.commit.op_class_0::SimdSha1Hash2            0      0.00%     62.64% # Class of committed instruction
system.cpu1.commit.op_class_0::SimdSha256Hash            0      0.00%     62.64% # Class of committed instruction
system.cpu1.commit.op_class_0::SimdSha256Hash2            0      0.00%     62.64% # Class of committed instruction
system.cpu1.commit.op_class_0::SimdShaSigma2            0      0.00%     62.64% # Class of committed instruction
system.cpu1.commit.op_class_0::SimdShaSigma3            0      0.00%     62.64% # Class of committed instruction
system.cpu1.commit.op_class_0::SimdPredAlu            0      0.00%     62.64% # Class of committed instruction
system.cpu1.commit.op_class_0::MemRead       17939510     31.53%     94.17% # Class of committed instruction
system.cpu1.commit.op_class_0::MemWrite       3319697      5.83%    100.00% # Class of committed instruction
system.cpu1.commit.op_class_0::FloatMemRead            0      0.00%    100.00% # Class of committed instruction
system.cpu1.commit.op_class_0::FloatMemWrite           12      0.00%    100.00% # Class of committed instruction
system.cpu1.commit.op_class_0::IprAccess            0      0.00%    100.00% # Class of committed instruction
system.cpu1.commit.op_class_0::InstPrefetch            0      0.00%    100.00% # Class of committed instruction
system.cpu1.commit.op_class_0::total         56903533                       # Class of committed instruction
system.cpu1.commit.refs                      21259219                       # Number of memory references committed
system.cpu1.commit.swp_count                        0                       # Number of s/w prefetches committed
system.cpu1.commit.vec_insts                        0                       # Number of committed Vector instructions.
system.cpu1.committedInsts                   55092156                       # Number of Instructions Simulated
system.cpu1.committedOps                     56903533                       # Number of Ops (including micro ops) Simulated
system.cpu1.cpi                              6.142834                       # CPI: Cycles Per Instruction
system.cpu1.cpi_total                        6.142834                       # CPI: Total CPI of All Threads
system.cpu1.decode.BlockedCycles            291901611                       # Number of cycles decode is blocked
system.cpu1.decode.BranchMispred               819269                       # Number of times decode detected a branch misprediction
system.cpu1.decode.BranchResolved             8908532                       # Number of times decode resolved a branch
system.cpu1.decode.DecodedInsts              87826644                       # Number of instructions handled by decode
system.cpu1.decode.IdleCycles                12285336                       # Number of cycles decode is idle
system.cpu1.decode.RunCycles                 28223590                       # Number of cycles decode is running
system.cpu1.decode.SquashCycles               1143770                       # Number of cycles decode is squashing
system.cpu1.decode.SquashedInsts              1184239                       # Number of squashed instructions handled by decode
system.cpu1.decode.UnblockCycles              4626956                       # Number of cycles decode is unblocking
system.cpu1.dtb.accesses                            0                       # DTB accesses
system.cpu1.dtb.hits                                0                       # DTB hits
system.cpu1.dtb.misses                              0                       # DTB misses
system.cpu1.dtb.read_accesses                       0                       # DTB read accesses
system.cpu1.dtb.read_hits                           0                       # DTB read hits
system.cpu1.dtb.read_misses                         0                       # DTB read misses
system.cpu1.dtb.write_accesses                      0                       # DTB write accesses
system.cpu1.dtb.write_hits                          0                       # DTB write hits
system.cpu1.dtb.write_misses                        0                       # DTB write misses
system.cpu1.fetch.Branches                   20971427                       # Number of branches that fetch encountered
system.cpu1.fetch.CacheLines                 12870384                       # Number of cache lines fetched
system.cpu1.fetch.Cycles                    322144578                       # Number of cycles fetch has run and was not squashing or blocked
system.cpu1.fetch.IcacheSquashes               124014                       # Number of outstanding Icache misses that were squashed
system.cpu1.fetch.IcacheWaitRetryStallCycles           31                       # Number of stall cycles due to full MSHR
system.cpu1.fetch.Insts                     101436554                       # Number of instructions fetch has processed
system.cpu1.fetch.MiscStallCycles                   2                       # Number of cycles fetch has spent waiting on interrupts, or bad addresses, or out of MSHRs
system.cpu1.fetch.SquashCycles                3913800                       # Number of cycles fetch has spent squashing
system.cpu1.fetch.branchRate                 0.061968                       # Number of branch fetches per cycle
system.cpu1.fetch.icacheStallCycles          14079752                       # Number of cycles fetch is stalled on an Icache miss
system.cpu1.fetch.predictedBranches          10225003                       # Number of branches that fetch has predicted taken
system.cpu1.fetch.rate                       0.299734                       # Number of inst fetches per cycle
system.cpu1.fetch.rateDist::samples         338181263                       # Number of instructions fetched each cycle (Total)
system.cpu1.fetch.rateDist::mean             0.311712                       # Number of instructions fetched each cycle (Total)
system.cpu1.fetch.rateDist::stdev            0.809523                       # Number of instructions fetched each cycle (Total)
system.cpu1.fetch.rateDist::underflows              0      0.00%      0.00% # Number of instructions fetched each cycle (Total)
system.cpu1.fetch.rateDist::0               278802856     82.44%     82.44% # Number of instructions fetched each cycle (Total)
system.cpu1.fetch.rateDist::1                31653523      9.36%     91.80% # Number of instructions fetched each cycle (Total)
system.cpu1.fetch.rateDist::2                16745620      4.95%     96.75% # Number of instructions fetched each cycle (Total)
system.cpu1.fetch.rateDist::3                 6031843      1.78%     98.54% # Number of instructions fetched each cycle (Total)
system.cpu1.fetch.rateDist::4                 3015649      0.89%     99.43% # Number of instructions fetched each cycle (Total)
system.cpu1.fetch.rateDist::5                 1485632      0.44%     99.87% # Number of instructions fetched each cycle (Total)
system.cpu1.fetch.rateDist::6                  442365      0.13%    100.00% # Number of instructions fetched each cycle (Total)
system.cpu1.fetch.rateDist::7                     122      0.00%    100.00% # Number of instructions fetched each cycle (Total)
system.cpu1.fetch.rateDist::8                    3653      0.00%    100.00% # Number of instructions fetched each cycle (Total)
system.cpu1.fetch.rateDist::overflows               0      0.00%    100.00% # Number of instructions fetched each cycle (Total)
system.cpu1.fetch.rateDist::min_value               0                       # Number of instructions fetched each cycle (Total)
system.cpu1.fetch.rateDist::max_value               8                       # Number of instructions fetched each cycle (Total)
system.cpu1.fetch.rateDist::total           338181263                       # Number of instructions fetched each cycle (Total)
system.cpu1.fp_regfile_reads                       12                       # number of floating regfile reads
system.cpu1.idleCycles                         240706                       # Total number of cycles that the CPU has spent unscheduled due to idling
system.cpu1.iew.branchMispredicts             1213156                       # Number of branch mispredicts detected at execute
system.cpu1.iew.exec_branches                14810540                       # Number of branches executed
system.cpu1.iew.exec_nop                            0                       # number of nop insts executed
system.cpu1.iew.exec_rate                    0.191811                       # Inst execution rate
system.cpu1.iew.exec_refs                    22668927                       # number of memory reference insts executed
system.cpu1.iew.exec_stores                   5216274                       # Number of stores executed
system.cpu1.iew.exec_swp                            0                       # number of swp insts executed
system.cpu1.iew.iewBlockCycles              247388763                       # Number of cycles IEW is blocking
system.cpu1.iew.iewDispLoadInsts             22641304                       # Number of dispatched load instructions
system.cpu1.iew.iewDispNonSpecInsts           2712010                       # Number of dispatched non-speculative instructions
system.cpu1.iew.iewDispSquashedInsts          1741612                       # Number of squashed instructions skipped by dispatch
system.cpu1.iew.iewDispStoreInsts             7093478                       # Number of dispatched store instructions
system.cpu1.iew.iewDispatchedInsts           79670574                       # Number of instructions dispatched to IQ
system.cpu1.iew.iewExecLoadInsts             17452653                       # Number of load instructions executed
system.cpu1.iew.iewExecSquashedInsts           836731                       # Number of squashed instructions skipped in execute
system.cpu1.iew.iewExecutedInsts             64912969                       # Number of executed instructions
system.cpu1.iew.iewIQFullEvents               1555179                       # Number of times the IQ has become full, causing a stall
system.cpu1.iew.iewIdleCycles                       0                       # Number of cycles IEW is idle
system.cpu1.iew.iewLSQFullEvents              1929812                       # Number of times the LSQ has become full, causing a stall
system.cpu1.iew.iewSquashCycles               1143770                       # Number of cycles IEW is squashing
system.cpu1.iew.iewUnblockCycles              5498022                       # Number of cycles IEW is unblocking
system.cpu1.iew.lsq.thread0.blockedLoads            0                       # Number of blocked loads due to partial load-store forwarding
system.cpu1.iew.lsq.thread0.cacheBlocked        36036                       # Number of times an access to memory failed due to the cache being blocked
system.cpu1.iew.lsq.thread0.forwLoads          295054                       # Number of loads that had data forwarded from stores
system.cpu1.iew.lsq.thread0.ignoredResponses         8605                       # Number of memory responses ignored because the instruction is squashed
system.cpu1.iew.lsq.thread0.invAddrLoads            0                       # Number of loads ignored due to an invalid address
system.cpu1.iew.lsq.thread0.invAddrSwpfs            0                       # Number of software prefetches ignored due to an invalid address
system.cpu1.iew.lsq.thread0.memOrderViolation          503                       # Number of memory ordering violations
system.cpu1.iew.lsq.thread0.rescheduledLoads         2437                       # Number of loads that were rescheduled
system.cpu1.iew.lsq.thread0.squashedLoads      6512993                       # Number of loads squashed
system.cpu1.iew.lsq.thread0.squashedStores      1962570                       # Number of stores squashed
system.cpu1.iew.memOrderViolationEvents           503                       # Number of memory order violations
system.cpu1.iew.predictedNotTakenIncorrect       208239                       # Number of branches that were predicted not taken incorrectly
system.cpu1.iew.predictedTakenIncorrect       1004917                       # Number of branches that were predicted taken incorrectly
system.cpu1.iew.wb_consumers                 37025928                       # num instructions consuming a value
system.cpu1.iew.wb_count                     64358035                       # cumulative count of insts written-back
system.cpu1.iew.wb_fanout                    0.847105                       # average fanout of values written-back
system.cpu1.iew.wb_producers                 31364834                       # num instructions producing a value
system.cpu1.iew.wb_rate                      0.190171                       # insts written-back per cycle
system.cpu1.iew.wb_sent                      64374146                       # cumulative count of insts sent to commit
system.cpu1.int_regfile_reads                81035873                       # number of integer regfile reads
system.cpu1.int_regfile_writes               42813325                       # number of integer regfile writes
system.cpu1.ipc                              0.162791                       # IPC: Instructions Per Cycle
system.cpu1.ipc_total                        0.162791                       # IPC: Total IPC of All Threads
system.cpu1.iq.FU_type_0::No_OpClass          3622623      5.51%      5.51% # Type of FU issued
system.cpu1.iq.FU_type_0::IntAlu             39309247     59.79%     65.30% # Type of FU issued
system.cpu1.iq.FU_type_0::IntMult                  46      0.00%     65.30% # Type of FU issued
system.cpu1.iq.FU_type_0::IntDiv                   88      0.00%     65.30% # Type of FU issued
system.cpu1.iq.FU_type_0::FloatAdd                  0      0.00%     65.30% # Type of FU issued
system.cpu1.iq.FU_type_0::FloatCmp                  0      0.00%     65.30% # Type of FU issued
system.cpu1.iq.FU_type_0::FloatCvt                  0      0.00%     65.30% # Type of FU issued
system.cpu1.iq.FU_type_0::FloatMult                 0      0.00%     65.30% # Type of FU issued
system.cpu1.iq.FU_type_0::FloatMultAcc              0      0.00%     65.30% # Type of FU issued
system.cpu1.iq.FU_type_0::FloatDiv                  0      0.00%     65.30% # Type of FU issued
system.cpu1.iq.FU_type_0::FloatMisc                 0      0.00%     65.30% # Type of FU issued
system.cpu1.iq.FU_type_0::FloatSqrt                 0      0.00%     65.30% # Type of FU issued
system.cpu1.iq.FU_type_0::SimdAdd                   0      0.00%     65.30% # Type of FU issued
system.cpu1.iq.FU_type_0::SimdAddAcc                0      0.00%     65.30% # Type of FU issued
system.cpu1.iq.FU_type_0::SimdAlu                   0      0.00%     65.30% # Type of FU issued
system.cpu1.iq.FU_type_0::SimdCmp                   0      0.00%     65.30% # Type of FU issued
system.cpu1.iq.FU_type_0::SimdCvt                   0      0.00%     65.30% # Type of FU issued
system.cpu1.iq.FU_type_0::SimdMisc                  0      0.00%     65.30% # Type of FU issued
system.cpu1.iq.FU_type_0::SimdMult                  0      0.00%     65.30% # Type of FU issued
system.cpu1.iq.FU_type_0::SimdMultAcc               0      0.00%     65.30% # Type of FU issued
system.cpu1.iq.FU_type_0::SimdShift                 0      0.00%     65.30% # Type of FU issued
system.cpu1.iq.FU_type_0::SimdShiftAcc              0      0.00%     65.30% # Type of FU issued
system.cpu1.iq.FU_type_0::SimdDiv                   0      0.00%     65.30% # Type of FU issued
system.cpu1.iq.FU_type_0::SimdSqrt                  0      0.00%     65.30% # Type of FU issued
system.cpu1.iq.FU_type_0::SimdFloatAdd              0      0.00%     65.30% # Type of FU issued
system.cpu1.iq.FU_type_0::SimdFloatAlu              0      0.00%     65.30% # Type of FU issued
system.cpu1.iq.FU_type_0::SimdFloatCmp              0      0.00%     65.30% # Type of FU issued
system.cpu1.iq.FU_type_0::SimdFloatCvt              0      0.00%     65.30% # Type of FU issued
system.cpu1.iq.FU_type_0::SimdFloatDiv              0      0.00%     65.30% # Type of FU issued
system.cpu1.iq.FU_type_0::SimdFloatMisc             0      0.00%     65.30% # Type of FU issued
system.cpu1.iq.FU_type_0::SimdFloatMult             0      0.00%     65.30% # Type of FU issued
system.cpu1.iq.FU_type_0::SimdFloatMultAcc            0      0.00%     65.30% # Type of FU issued
system.cpu1.iq.FU_type_0::SimdFloatSqrt             0      0.00%     65.30% # Type of FU issued
system.cpu1.iq.FU_type_0::SimdReduceAdd             0      0.00%     65.30% # Type of FU issued
system.cpu1.iq.FU_type_0::SimdReduceAlu             0      0.00%     65.30% # Type of FU issued
system.cpu1.iq.FU_type_0::SimdReduceCmp             0      0.00%     65.30% # Type of FU issued
system.cpu1.iq.FU_type_0::SimdFloatReduceAdd            0      0.00%     65.30% # Type of FU issued
system.cpu1.iq.FU_type_0::SimdFloatReduceCmp            0      0.00%     65.30% # Type of FU issued
system.cpu1.iq.FU_type_0::SimdAes                   0      0.00%     65.30% # Type of FU issued
system.cpu1.iq.FU_type_0::SimdAesMix                0      0.00%     65.30% # Type of FU issued
system.cpu1.iq.FU_type_0::SimdSha1Hash              0      0.00%     65.30% # Type of FU issued
system.cpu1.iq.FU_type_0::SimdSha1Hash2             0      0.00%     65.30% # Type of FU issued
system.cpu1.iq.FU_type_0::SimdSha256Hash            0      0.00%     65.30% # Type of FU issued
system.cpu1.iq.FU_type_0::SimdSha256Hash2            0      0.00%     65.30% # Type of FU issued
system.cpu1.iq.FU_type_0::SimdShaSigma2             0      0.00%     65.30% # Type of FU issued
system.cpu1.iq.FU_type_0::SimdShaSigma3             0      0.00%     65.30% # Type of FU issued
system.cpu1.iq.FU_type_0::SimdPredAlu               0      0.00%     65.30% # Type of FU issued
system.cpu1.iq.FU_type_0::MemRead            19398007     29.50%     94.80% # Type of FU issued
system.cpu1.iq.FU_type_0::MemWrite            3419677      5.20%    100.00% # Type of FU issued
system.cpu1.iq.FU_type_0::FloatMemRead              0      0.00%    100.00% # Type of FU issued
system.cpu1.iq.FU_type_0::FloatMemWrite            12      0.00%    100.00% # Type of FU issued
system.cpu1.iq.FU_type_0::IprAccess                 0      0.00%    100.00% # Type of FU issued
system.cpu1.iq.FU_type_0::InstPrefetch              0      0.00%    100.00% # Type of FU issued
system.cpu1.iq.FU_type_0::total              65749700                       # Type of FU issued
system.cpu1.iq.fp_alu_accesses                     14                       # Number of floating point alu accesses
system.cpu1.iq.fp_inst_queue_reads                 26                       # Number of floating instruction queue reads
system.cpu1.iq.fp_inst_queue_wakeup_accesses           12                       # Number of floating instruction queue wakeup accesses
system.cpu1.iq.fp_inst_queue_writes                12                       # Number of floating instruction queue writes
system.cpu1.iq.fu_busy_cnt                    1984368                       # FU busy when requested
system.cpu1.iq.fu_busy_rate                  0.030181                       # FU busy rate (busy events/executed inst)
system.cpu1.iq.fu_full::No_OpClass                  0      0.00%      0.00% # attempts to use FU when none available
system.cpu1.iq.fu_full::IntAlu                 342430     17.26%     17.26% # attempts to use FU when none available
system.cpu1.iq.fu_full::IntMult                     0      0.00%     17.26% # attempts to use FU when none available
system.cpu1.iq.fu_full::IntDiv                      0      0.00%     17.26% # attempts to use FU when none available
system.cpu1.iq.fu_full::FloatAdd                    0      0.00%     17.26% # attempts to use FU when none available
system.cpu1.iq.fu_full::FloatCmp                    0      0.00%     17.26% # attempts to use FU when none available
system.cpu1.iq.fu_full::FloatCvt                    0      0.00%     17.26% # attempts to use FU when none available
system.cpu1.iq.fu_full::FloatMult                   0      0.00%     17.26% # attempts to use FU when none available
system.cpu1.iq.fu_full::FloatMultAcc                0      0.00%     17.26% # attempts to use FU when none available
system.cpu1.iq.fu_full::FloatDiv                    0      0.00%     17.26% # attempts to use FU when none available
system.cpu1.iq.fu_full::FloatMisc                   0      0.00%     17.26% # attempts to use FU when none available
system.cpu1.iq.fu_full::FloatSqrt                   0      0.00%     17.26% # attempts to use FU when none available
system.cpu1.iq.fu_full::SimdAdd                     0      0.00%     17.26% # attempts to use FU when none available
system.cpu1.iq.fu_full::SimdAddAcc                  0      0.00%     17.26% # attempts to use FU when none available
system.cpu1.iq.fu_full::SimdAlu                     0      0.00%     17.26% # attempts to use FU when none available
system.cpu1.iq.fu_full::SimdCmp                     0      0.00%     17.26% # attempts to use FU when none available
system.cpu1.iq.fu_full::SimdCvt                     0      0.00%     17.26% # attempts to use FU when none available
system.cpu1.iq.fu_full::SimdMisc                    0      0.00%     17.26% # attempts to use FU when none available
system.cpu1.iq.fu_full::SimdMult                    0      0.00%     17.26% # attempts to use FU when none available
system.cpu1.iq.fu_full::SimdMultAcc                 0      0.00%     17.26% # attempts to use FU when none available
system.cpu1.iq.fu_full::SimdShift                   0      0.00%     17.26% # attempts to use FU when none available
system.cpu1.iq.fu_full::SimdShiftAcc                0      0.00%     17.26% # attempts to use FU when none available
system.cpu1.iq.fu_full::SimdDiv                     0      0.00%     17.26% # attempts to use FU when none available
system.cpu1.iq.fu_full::SimdSqrt                    0      0.00%     17.26% # attempts to use FU when none available
system.cpu1.iq.fu_full::SimdFloatAdd                0      0.00%     17.26% # attempts to use FU when none available
system.cpu1.iq.fu_full::SimdFloatAlu                0      0.00%     17.26% # attempts to use FU when none available
system.cpu1.iq.fu_full::SimdFloatCmp                0      0.00%     17.26% # attempts to use FU when none available
system.cpu1.iq.fu_full::SimdFloatCvt                0      0.00%     17.26% # attempts to use FU when none available
system.cpu1.iq.fu_full::SimdFloatDiv                0      0.00%     17.26% # attempts to use FU when none available
system.cpu1.iq.fu_full::SimdFloatMisc               0      0.00%     17.26% # attempts to use FU when none available
system.cpu1.iq.fu_full::SimdFloatMult               0      0.00%     17.26% # attempts to use FU when none available
system.cpu1.iq.fu_full::SimdFloatMultAcc            0      0.00%     17.26% # attempts to use FU when none available
system.cpu1.iq.fu_full::SimdFloatSqrt               0      0.00%     17.26% # attempts to use FU when none available
system.cpu1.iq.fu_full::SimdReduceAdd               0      0.00%     17.26% # attempts to use FU when none available
system.cpu1.iq.fu_full::SimdReduceAlu               0      0.00%     17.26% # attempts to use FU when none available
system.cpu1.iq.fu_full::SimdReduceCmp               0      0.00%     17.26% # attempts to use FU when none available
system.cpu1.iq.fu_full::SimdFloatReduceAdd            0      0.00%     17.26% # attempts to use FU when none available
system.cpu1.iq.fu_full::SimdFloatReduceCmp            0      0.00%     17.26% # attempts to use FU when none available
system.cpu1.iq.fu_full::SimdAes                     0      0.00%     17.26% # attempts to use FU when none available
system.cpu1.iq.fu_full::SimdAesMix                  0      0.00%     17.26% # attempts to use FU when none available
system.cpu1.iq.fu_full::SimdSha1Hash                0      0.00%     17.26% # attempts to use FU when none available
system.cpu1.iq.fu_full::SimdSha1Hash2               0      0.00%     17.26% # attempts to use FU when none available
system.cpu1.iq.fu_full::SimdSha256Hash              0      0.00%     17.26% # attempts to use FU when none available
system.cpu1.iq.fu_full::SimdSha256Hash2             0      0.00%     17.26% # attempts to use FU when none available
system.cpu1.iq.fu_full::SimdShaSigma2               0      0.00%     17.26% # attempts to use FU when none available
system.cpu1.iq.fu_full::SimdShaSigma3               0      0.00%     17.26% # attempts to use FU when none available
system.cpu1.iq.fu_full::SimdPredAlu                 0      0.00%     17.26% # attempts to use FU when none available
system.cpu1.iq.fu_full::MemRead               1447904     72.97%     90.22% # attempts to use FU when none available
system.cpu1.iq.fu_full::MemWrite               194032      9.78%    100.00% # attempts to use FU when none available
[...]
system.cpu1.dcache.ReadReq_avg_miss_latency::total 79039.117672                       # average ReadReq miss latency
system.cpu1.dcache.ReadReq_mshr_hits::.cpu1.data      2620096                       # number of ReadReq MSHR hits
system.cpu1.dcache.ReadReq_mshr_hits::total      2620096                       # number of ReadReq MSHR hits
system.cpu1.dcache.ReadReq_mshr_misses::.cpu1.data      2003965                       # number of ReadReq MSHR misses
system.cpu1.dcache.ReadReq_mshr_misses::total      2003965                       # number of ReadReq MSHR misses
system.cpu1.dcache.ReadReq_mshr_miss_latency::.cpu1.data 191034912000                       # number of ReadReq MSHR miss cycles
system.cpu1.dcache.ReadReq_mshr_miss_latency::total 191034912000                       # number of ReadReq MSHR miss cycles
system.cpu1.dcache.ReadReq_mshr_miss_rate::.cpu1.data     0.103139                       # mshr miss rate for ReadReq accesses
system.cpu1.dcache.ReadReq_mshr_miss_rate::total     0.103139                       # mshr miss rate for ReadReq accesses
system.cpu1.dcache.ReadReq_avg_mshr_miss_latency::.cpu1.data 95328.467314                       # average ReadReq mshr miss latency
system.cpu1.dcache.ReadReq_avg_mshr_miss_latency::total 95328.467314                       # average ReadReq mshr miss latency
system.cpu1.dcache.WriteReq_hits::.cpu1.data       779614                       # number of WriteReq hits
system.cpu1.dcache.WriteReq_hits::total        779614                       # number of WriteReq hits
system.cpu1.dcache.WriteReq_misses::.cpu1.data       598109                       # number of WriteReq misses
system.cpu1.dcache.WriteReq_misses::total       598109                       # number of WriteReq misses
system.cpu1.dcache.WriteReq_miss_latency::.cpu1.data  47621116270                       # number of WriteReq miss cycles
system.cpu1.dcache.WriteReq_miss_latency::total  47621116270                       # number of WriteReq miss cycles
system.cpu1.dcache.WriteReq_accesses::.cpu1.data      1377723                       # number of WriteReq accesses(hits+misses)
system.cpu1.dcache.WriteReq_accesses::total      1377723                       # number of WriteReq accesses(hits+misses)
system.cpu1.dcache.WriteReq_miss_rate::.cpu1.data     0.434129                       # miss rate for WriteReq accesses
system.cpu1.dcache.WriteReq_miss_rate::total     0.434129                       # miss rate for WriteReq accesses
system.cpu1.dcache.WriteReq_avg_miss_latency::.cpu1.data 79619.461118                       # average WriteReq miss latency
system.cpu1.dcache.WriteReq_avg_miss_latency::total 79619.461118                       # average WriteReq miss latency
system.cpu1.dcache.WriteReq_mshr_hits::.cpu1.data       555751                       # number of WriteReq MSHR hits
system.cpu1.dcache.WriteReq_mshr_hits::total       555751                       # number of WriteReq MSHR hits
system.cpu1.dcache.WriteReq_mshr_misses::.cpu1.data        42358                       # number of WriteReq MSHR misses
system.cpu1.dcache.WriteReq_mshr_misses::total        42358                       # number of WriteReq MSHR misses
system.cpu1.dcache.WriteReq_mshr_miss_latency::.cpu1.data   4181317311                       # number of WriteReq MSHR miss cycles
system.cpu1.dcache.WriteReq_mshr_miss_latency::total   4181317311                       # number of WriteReq MSHR miss cycles
system.cpu1.dcache.WriteReq_mshr_miss_rate::.cpu1.data     0.030745                       # mshr miss rate for WriteReq accesses
system.cpu1.dcache.WriteReq_mshr_miss_rate::total     0.030745                       # mshr miss rate for WriteReq accesses
system.cpu1.dcache.WriteReq_avg_mshr_miss_latency::.cpu1.data 98713.756811                       # average WriteReq mshr miss latency
system.cpu1.dcache.WriteReq_avg_mshr_miss_latency::total 98713.756811                       # average WriteReq mshr miss latency
system.cpu1.dcache.LoadLockedReq_hits::.cpu1.data          680                       # number of LoadLockedReq hits
system.cpu1.dcache.LoadLockedReq_hits::total          680                       # number of LoadLockedReq hits
system.cpu1.dcache.LoadLockedReq_misses::.cpu1.data          161                       # number of LoadLockedReq misses
system.cpu1.dcache.LoadLockedReq_misses::total          161                       # number of LoadLockedReq misses
system.cpu1.dcache.LoadLockedReq_miss_latency::.cpu1.data     14114000                       # number of LoadLockedReq miss cycles
system.cpu1.dcache.LoadLockedReq_miss_latency::total     14114000                       # number of LoadLockedReq miss cycles
system.cpu1.dcache.LoadLockedReq_accesses::.cpu1.data          841                       # number of LoadLockedReq accesses(hits+misses)
system.cpu1.dcache.LoadLockedReq_accesses::total          841                       # number of LoadLockedReq accesses(hits+misses)
system.cpu1.dcache.LoadLockedReq_miss_rate::.cpu1.data     0.191439                       # miss rate for LoadLockedReq accesses
system.cpu1.dcache.LoadLockedReq_miss_rate::total     0.191439                       # miss rate for LoadLockedReq accesses
system.cpu1.dcache.LoadLockedReq_avg_miss_latency::.cpu1.data 87664.596273                       # average LoadLockedReq miss latency
system.cpu1.dcache.LoadLockedReq_avg_miss_latency::total 87664.596273                       # average LoadLockedReq miss latency
system.cpu1.dcache.LoadLockedReq_mshr_hits::.cpu1.data           74                       # number of LoadLockedReq MSHR hits
system.cpu1.dcache.LoadLockedReq_mshr_hits::total           74                       # number of LoadLockedReq MSHR hits
system.cpu1.dcache.LoadLockedReq_mshr_misses::.cpu1.data           87                       # number of LoadLockedReq MSHR misses
system.cpu1.dcache.LoadLockedReq_mshr_misses::total           87                       # number of LoadLockedReq MSHR misses
system.cpu1.dcache.LoadLockedReq_mshr_miss_latency::.cpu1.data      7098500                       # number of LoadLockedReq MSHR miss cycles
system.cpu1.dcache.LoadLockedReq_mshr_miss_latency::total      7098500                       # number of LoadLockedReq MSHR miss cycles
system.cpu1.dcache.LoadLockedReq_mshr_miss_rate::.cpu1.data     0.103448                       # mshr miss rate for LoadLockedReq accesses
system.cpu1.dcache.LoadLockedReq_mshr_miss_rate::total     0.103448                       # mshr miss rate for LoadLockedReq accesses
system.cpu1.dcache.LoadLockedReq_avg_mshr_miss_latency::.cpu1.data 81591.954023                       # average LoadLockedReq mshr miss latency
system.cpu1.dcache.LoadLockedReq_avg_mshr_miss_latency::total 81591.954023                       # average LoadLockedReq mshr miss latency
system.cpu1.dcache.StoreCondReq_hits::.cpu1.data          572                       # number of StoreCondReq hits
system.cpu1.dcache.StoreCondReq_hits::total          572                       # number of StoreCondReq hits
system.cpu1.dcache.StoreCondReq_misses::.cpu1.data          225                       # number of StoreCondReq misses
system.cpu1.dcache.StoreCondReq_misses::total          225                       # number of StoreCondReq misses
system.cpu1.dcache.StoreCondReq_miss_latency::.cpu1.data      1975500                       # number of StoreCondReq miss cycles
system.cpu1.dcache.StoreCondReq_miss_latency::total      1975500                       # number of StoreCondReq miss cycles
system.cpu1.dcache.StoreCondReq_accesses::.cpu1.data          797                       # number of StoreCondReq accesses(hits+misses)
system.cpu1.dcache.StoreCondReq_accesses::total          797                       # number of StoreCondReq accesses(hits+misses)
system.cpu1.dcache.StoreCondReq_miss_rate::.cpu1.data     0.282309                       # miss rate for StoreCondReq accesses
system.cpu1.dcache.StoreCondReq_miss_rate::total     0.282309                       # miss rate for StoreCondReq accesses
system.cpu1.dcache.StoreCondReq_avg_miss_latency::.cpu1.data         8780                       # average StoreCondReq miss latency
system.cpu1.dcache.StoreCondReq_avg_miss_latency::total         8780                       # average StoreCondReq miss latency
system.cpu1.dcache.StoreCondReq_mshr_misses::.cpu1.data          225                       # number of StoreCondReq MSHR misses
system.cpu1.dcache.StoreCondReq_mshr_misses::total          225                       # number of StoreCondReq MSHR misses
system.cpu1.dcache.StoreCondReq_mshr_miss_latency::.cpu1.data      1750500                       # number of StoreCondReq MSHR miss cycles
system.cpu1.dcache.StoreCondReq_mshr_miss_latency::total      1750500                       # number of StoreCondReq MSHR miss cycles
system.cpu1.dcache.StoreCondReq_mshr_miss_rate::.cpu1.data     0.282309                       # mshr miss rate for StoreCondReq accesses
system.cpu1.dcache.StoreCondReq_mshr_miss_rate::total     0.282309                       # mshr miss rate for StoreCondReq accesses
system.cpu1.dcache.StoreCondReq_avg_mshr_miss_latency::.cpu1.data         7780                       # average StoreCondReq mshr miss latency
system.cpu1.dcache.StoreCondReq_avg_mshr_miss_latency::total         7780                       # average StoreCondReq mshr miss latency
system.cpu1.dcache.SwapReq_hits::.cpu1.data          299                       # number of SwapReq hits
system.cpu1.dcache.SwapReq_hits::total            299                       # number of SwapReq hits
system.cpu1.dcache.SwapReq_misses::.cpu1.data          165                       # number of SwapReq misses
system.cpu1.dcache.SwapReq_misses::total          165                       # number of SwapReq misses
system.cpu1.dcache.SwapReq_miss_latency::.cpu1.data      1073500                       # number of SwapReq miss cycles
system.cpu1.dcache.SwapReq_miss_latency::total      1073500                       # number of SwapReq miss cycles
system.cpu1.dcache.SwapReq_accesses::.cpu1.data          464                       # number of SwapReq accesses(hits+misses)
system.cpu1.dcache.SwapReq_accesses::total          464                       # number of SwapReq accesses(hits+misses)
system.cpu1.dcache.SwapReq_miss_rate::.cpu1.data     0.355603                       # miss rate for SwapReq accesses
system.cpu1.dcache.SwapReq_miss_rate::total     0.355603                       # miss rate for SwapReq accesses
system.cpu1.dcache.SwapReq_avg_miss_latency::.cpu1.data  6506.060606                       # average SwapReq miss latency
system.cpu1.dcache.SwapReq_avg_miss_latency::total  6506.060606                       # average SwapReq miss latency
system.cpu1.dcache.SwapReq_mshr_misses::.cpu1.data          165                       # number of SwapReq MSHR misses
system.cpu1.dcache.SwapReq_mshr_misses::total          165                       # number of SwapReq MSHR misses
system.cpu1.dcache.SwapReq_mshr_miss_latency::.cpu1.data       908500                       # number of SwapReq MSHR miss cycles
system.cpu1.dcache.SwapReq_mshr_miss_latency::total       908500                       # number of SwapReq MSHR miss cycles
system.cpu1.dcache.SwapReq_mshr_miss_rate::.cpu1.data     0.355603                       # mshr miss rate for SwapReq accesses
system.cpu1.dcache.SwapReq_mshr_miss_rate::total     0.355603                       # mshr miss rate for SwapReq accesses
system.cpu1.dcache.SwapReq_avg_mshr_miss_latency::.cpu1.data  5506.060606                       # average SwapReq mshr miss latency
system.cpu1.dcache.SwapReq_avg_mshr_miss_latency::total  5506.060606                       # average SwapReq mshr miss latency
system.cpu1.dcache.tags.pwrStateResidencyTicks::UNDEFINED 604225786000                       # Cumulative time (in ticks) in various power states
system.cpu1.dcache.tags.tagsinuse           31.979808                       # Cycle average of tags in use
system.cpu1.dcache.tags.total_refs           17637834                       # Total number of references to valid blocks.
system.cpu1.dcache.tags.sampled_refs          2046229                       # Sample count of references to valid blocks.
system.cpu1.dcache.tags.avg_refs             8.619677                       # Average number of references to valid blocks.
system.cpu1.dcache.tags.warmup_cycle                0                       # Cycle when the warmup percentage was hit.
system.cpu1.dcache.tags.occ_blocks::.cpu1.data    31.979808                       # Average occupied blocks per requestor
system.cpu1.dcache.tags.occ_percent::.cpu1.data     0.999369                       # Average percentage of cache occupancy
system.cpu1.dcache.tags.occ_percent::total     0.999369                       # Average percentage of cache occupancy
system.cpu1.dcache.tags.occ_task_id_blocks::1024           29                       # Occupied blocks per task id
system.cpu1.dcache.tags.age_task_id_blocks_1024::1           29                       # Occupied blocks per task id
system.cpu1.dcache.tags.occ_task_id_percent::1024     0.906250                       # Percentage of cache occupancy per task id
system.cpu1.dcache.tags.tag_accesses         43665168                       # Number of tag accesses
system.cpu1.dcache.tags.data_accesses        43665168                       # Number of data accesses
system.cpu_clk_domain.clock                       500                       # Clock period in ticks
system.tol2bus.pwrStateResidencyTicks::UNDEFINED 604225786000                       # Cumulative time (in ticks) in various power states
system.tol2bus.trans_dist::ReadResp          25256287                       # Transaction distribution
system.tol2bus.trans_dist::WritebackDirty       897097                       # Transaction distribution
system.tol2bus.trans_dist::WritebackClean     24860886                       # Transaction distribution
system.tol2bus.trans_dist::CleanEvict        66823462                       # Transaction distribution
system.tol2bus.trans_dist::HardPFReq         42723361                       # Transaction distribution
system.tol2bus.trans_dist::HardPFResp               1                       # Transaction distribution
system.tol2bus.trans_dist::UpgradeReq            1824                       # Transaction distribution
system.tol2bus.trans_dist::SCUpgradeReq           448                       # Transaction distribution
system.tol2bus.trans_dist::UpgradeResp           2272                       # Transaction distribution
system.tol2bus.trans_dist::SCUpgradeFailReq            1                       # Transaction distribution
system.tol2bus.trans_dist::UpgradeFailResp            1                       # Transaction distribution
system.tol2bus.trans_dist::ReadExReq            85447                       # Transaction distribution
system.tol2bus.trans_dist::ReadExResp           85447                       # Transaction distribution
system.tol2bus.trans_dist::ReadCleanReq         17898                       # Transaction distribution
system.tol2bus.trans_dist::ReadSharedReq     25238389                       # Transaction distribution
system.tol2bus.pkt_count_system.cpu0.icache.mem_side::system.l2.cpu_side        45984                       # Packet count per connected master and slave (bytes)
system.tol2bus.pkt_count_system.cpu0.dcache.mem_side::system.l2.cpu_side     69832904                       # Packet count per connected master and slave (bytes)
system.tol2bus.pkt_count_system.cpu1.icache.mem_side::system.l2.cpu_side         7710                       # Packet count per connected master and slave (bytes)
system.tol2bus.pkt_count_system.cpu1.dcache.mem_side::system.l2.cpu_side      6135538                       # Packet count per connected master and slave (bytes)
system.tol2bus.pkt_count::total              76022136                       # Packet count per connected master and slave (bytes)
system.tol2bus.pkt_size_system.cpu0.icache.mem_side::system.l2.cpu_side      1961984                       # Cumulative packet size per connected master and slave (bytes)
system.tol2bus.pkt_size_system.cpu0.dcache.mem_side::system.l2.cpu_side   2979383040                       # Cumulative packet size per connected master and slave (bytes)
system.tol2bus.pkt_size_system.cpu1.icache.mem_side::system.l2.cpu_side       328960                       # Cumulative packet size per connected master and slave (bytes)
system.tol2bus.pkt_size_system.cpu1.dcache.mem_side::system.l2.cpu_side    261668032                       # Cumulative packet size per connected master and slave (bytes)
system.tol2bus.pkt_size::total             3243342016                       # Cumulative packet size per connected master and slave (bytes)
system.tol2bus.snoops                       109970686                       # Total snoops (count)
system.tol2bus.snoopTraffic                  27040064                       # Total snoop traffic (bytes)
system.tol2bus.snoop_fanout::samples        135323709                       # Request fanout histogram
system.tol2bus.snoop_fanout::mean            0.165488                       # Request fanout histogram
system.tol2bus.snoop_fanout::stdev           0.374866                       # Request fanout histogram
system.tol2bus.snoop_fanout::underflows             0      0.00%      0.00% # Request fanout histogram
system.tol2bus.snoop_fanout::0              113093130     83.57%     83.57% # Request fanout histogram
system.tol2bus.snoop_fanout::1               22066653     16.31%     99.88% # Request fanout histogram
system.tol2bus.snoop_fanout::2                 163926      0.12%    100.00% # Request fanout histogram
system.tol2bus.snoop_fanout::3                      0      0.00%    100.00% # Request fanout histogram
system.tol2bus.snoop_fanout::4                      0      0.00%    100.00% # Request fanout histogram
system.tol2bus.snoop_fanout::5                      0      0.00%    100.00% # Request fanout histogram
system.tol2bus.snoop_fanout::6                      0      0.00%    100.00% # Request fanout histogram
system.tol2bus.snoop_fanout::7                      0      0.00%    100.00% # Request fanout histogram
system.tol2bus.snoop_fanout::8                      0      0.00%    100.00% # Request fanout histogram
system.tol2bus.snoop_fanout::overflows              0      0.00%    100.00% # Request fanout histogram
system.tol2bus.snoop_fanout::min_value              0                       # Request fanout histogram
system.tol2bus.snoop_fanout::max_value              2                       # Request fanout histogram
system.tol2bus.snoop_fanout::total          135323709                       # Request fanout histogram
system.tol2bus.reqLayer0.occupancy        50710367834                       # Layer occupancy (ticks)
system.tol2bus.reqLayer0.utilization              8.4                       # Layer utilization (%)
system.tol2bus.respLayer1.occupancy       34920444178                       # Layer occupancy (ticks)
system.tol2bus.respLayer1.utilization             5.8                       # Layer utilization (%)
system.tol2bus.respLayer0.occupancy          23002479                       # Layer occupancy (ticks)
system.tol2bus.respLayer0.utilization             0.0                       # Layer utilization (%)
system.tol2bus.respLayer3.occupancy        3071697313                       # Layer occupancy (ticks)
system.tol2bus.respLayer3.utilization             0.5                       # Layer utilization (%)
system.tol2bus.respLayer2.occupancy           3860988                       # Layer occupancy (ticks)
system.tol2bus.respLayer2.utilization             0.0                       # Layer utilization (%)
system.tol2bus.snoopLayer0.occupancy             1501                       # Layer occupancy (ticks)
system.tol2bus.snoopLayer0.utilization            0.0                       # Layer utilization (%)

---------- End Simulation Statistics   ----------
