
---------- Begin Simulation Statistics ----------
final_tick                               1424756403000                       # Number of ticks from beginning of simulation (restored from checkpoints and never reset)
host_inst_rate                                  98622                       # Simulator instruction rate (inst/s)
host_mem_usage                                 739560                       # Number of bytes of host memory used
host_op_rate                                    98910                       # Simulator op (including micro ops) rate (op/s)
host_seconds                                 14610.95                       # Real time elapsed on the host
host_tick_rate                               97512909                       # Simulator tick rate (ticks/s)
sim_freq                                 1000000000000                       # Frequency of simulated ticks
sim_insts                                  1440958863                       # Number of instructions simulated
sim_ops                                    1445163886                       # Number of ops (including micro ops) simulated
sim_seconds                                  1.424756                       # Number of seconds simulated
sim_ticks                                1424756403000                       # Number of ticks simulated
system.cpu0.branchPred.BTBCorrect                   0                       # Number of correct BTB predictions (this stat may not work properly.
system.cpu0.branchPred.BTBHitPct            88.016313                       # BTB Hit Percentage
system.cpu0.branchPred.BTBHits              170698408                       # Number of BTB hits
system.cpu0.branchPred.BTBLookups           193939513                       # Number of BTB lookups
system.cpu0.branchPred.RASInCorrect                 0                       # Number of incorrect RAS predictions.
system.cpu0.branchPred.condIncorrect         16566791                       # Number of conditional branches incorrect
system.cpu0.branchPred.condPredicted        264127624                       # Number of conditional branches predicted
system.cpu0.branchPred.indirectHits          20705913                       # Number of indirect target hits.
system.cpu0.branchPred.indirectLookups       21524175                       # Number of indirect predictor lookups.
system.cpu0.branchPred.indirectMisses          818262                       # Number of indirect misses.
system.cpu0.branchPred.lookups              333827135                       # Number of BP lookups
system.cpu0.branchPred.usedRAS                      0                       # Number of times the RAS was used to get a target.
system.cpu0.branchPredindirectMispredicted      2149386                       # Number of mispredicted indirect branches.
system.cpu0.commit.amos                       1050480                       # Number of atomic instructions committed
system.cpu0.commit.branchMispredicts         10009605                       # The number of times a branch was mispredicted
system.cpu0.commit.branches                 313654169                       # Number of branches committed
system.cpu0.commit.bw_lim_events             37826029                       # number cycles where commit BW limit reached
system.cpu0.commit.commitNonSpecStalls        3160698                       # The number of times commit has been forced to stall to communicate backwards
system.cpu0.commit.commitSquashedInsts       68932052                       # The number of squashed insts skipped by commit
system.cpu0.commit.committedInsts          1250508636                       # Number of instructions committed
system.cpu0.commit.committedOps            1251562406                       # Number of ops (including micro ops) committed
system.cpu0.commit.committed_per_cycle::samples   2201025148                       # Number of insts commited each cycle
system.cpu0.commit.committed_per_cycle::mean     0.568627                       # Number of insts commited each cycle
system.cpu0.commit.committed_per_cycle::stdev     1.350541                       # Number of insts commited each cycle
system.cpu0.commit.committed_per_cycle::underflows            0      0.00%      0.00% # Number of insts commited each cycle
system.cpu0.commit.committed_per_cycle::0   1605059521     72.92%     72.92% # Number of insts commited each cycle
system.cpu0.commit.committed_per_cycle::1    348370732     15.83%     88.75% # Number of insts commited each cycle
system.cpu0.commit.committed_per_cycle::2     90641804      4.12%     92.87% # Number of insts commited each cycle
system.cpu0.commit.committed_per_cycle::3     84069828      3.82%     96.69% # Number of insts commited each cycle
system.cpu0.commit.committed_per_cycle::4     21180521      0.96%     97.65% # Number of insts commited each cycle
system.cpu0.commit.committed_per_cycle::5      5483938      0.25%     97.90% # Number of insts commited each cycle
system.cpu0.commit.committed_per_cycle::6      3800849      0.17%     98.07% # Number of insts commited each cycle
system.cpu0.commit.committed_per_cycle::7      4591926      0.21%     98.28% # Number of insts commited each cycle
system.cpu0.commit.committed_per_cycle::8     37826029      1.72%    100.00% # Number of insts commited each cycle
system.cpu0.commit.committed_per_cycle::overflows            0      0.00%    100.00% # Number of insts commited each cycle
system.cpu0.commit.committed_per_cycle::min_value            0                       # Number of insts commited each cycle
system.cpu0.commit.committed_per_cycle::max_value            8                       # Number of insts commited each cycle
system.cpu0.commit.committed_per_cycle::total   2201025148                       # Number of insts commited each cycle
system.cpu0.commit.fp_insts                        50                       # Number of committed floating point instructions.
system.cpu0.commit.function_calls            24112998                       # Number of function calls committed.
system.cpu0.commit.int_insts               1209808637                       # Number of committed integer instructions.
system.cpu0.commit.loads                    388697596                       # Number of loads committed
system.cpu0.commit.membars                    2104087                       # Number of memory barriers committed
system.cpu0.commit.op_class_0::No_OpClass      2104093      0.17%      0.17% # Class of committed instruction
system.cpu0.commit.op_class_0::IntAlu       699523049     55.89%     56.06% # Class of committed instruction
system.cpu0.commit.op_class_0::IntMult       11831882      0.95%     57.01% # Class of committed instruction
system.cpu0.commit.op_class_0::IntDiv         2099835      0.17%     57.17% # Class of committed instruction
system.cpu0.commit.op_class_0::FloatAdd             0      0.00%     57.17% # Class of committed instruction
system.cpu0.commit.op_class_0::FloatCmp             4      0.00%     57.17% # Class of committed instruction
system.cpu0.commit.op_class_0::FloatCvt            12      0.00%     57.17% # Class of committed instruction
system.cpu0.commit.op_class_0::FloatMult            0      0.00%     57.17% # Class of committed instruction
system.cpu0.commit.op_class_0::FloatMultAcc            0      0.00%     57.17% # Class of committed instruction
system.cpu0.commit.op_class_0::FloatDiv             2      0.00%     57.17% # Class of committed instruction
system.cpu0.commit.op_class_0::FloatMisc            4      0.00%     57.17% # Class of committed instruction
system.cpu0.commit.op_class_0::FloatSqrt            0      0.00%     57.17% # Class of committed instruction
system.cpu0.commit.op_class_0::SimdAdd              0      0.00%     57.17% # Class of committed instruction
system.cpu0.commit.op_class_0::SimdAddAcc            0      0.00%     57.17% # Class of committed instruction
system.cpu0.commit.op_class_0::SimdAlu              0      0.00%     57.17% # Class of committed instruction
system.cpu0.commit.op_class_0::SimdCmp              0      0.00%     57.17% # Class of committed instruction
system.cpu0.commit.op_class_0::SimdCvt              0      0.00%     57.17% # Class of committed instruction
system.cpu0.commit.op_class_0::SimdMisc             0      0.00%     57.17% # Class of committed instruction
system.cpu0.commit.op_class_0::SimdMult             0      0.00%     57.17% # Class of committed instruction
system.cpu0.commit.op_class_0::SimdMultAcc            0      0.00%     57.17% # Class of committed instruction
system.cpu0.commit.op_class_0::SimdShift            0      0.00%     57.17% # Class of committed instruction
system.cpu0.commit.op_class_0::SimdShiftAcc            0      0.00%     57.17% # Class of committed instruction
system.cpu0.commit.op_class_0::SimdDiv              0      0.00%     57.17% # Class of committed instruction
system.cpu0.commit.op_class_0::SimdSqrt             0      0.00%     57.17% # Class of committed instruction
system.cpu0.commit.op_class_0::SimdFloatAdd            0      0.00%     57.17% # Class of committed instruction
system.cpu0.commit.op_class_0::SimdFloatAlu            0      0.00%     57.17% # Class of committed instruction
system.cpu0.commit.op_class_0::SimdFloatCmp            0      0.00%     57.17% # Class of committed instruction
system.cpu0.commit.op_class_0::SimdFloatCvt            0      0.00%     57.17% # Class of committed instruction
system.cpu0.commit.op_class_0::SimdFloatDiv            0      0.00%     57.17% # Class of committed instruction
system.cpu0.commit.op_class_0::SimdFloatMisc            0      0.00%     57.17% # Class of committed instruction
system.cpu0.commit.op_class_0::SimdFloatMult            0      0.00%     57.17% # Class of committed instruction
system.cpu0.commit.op_class_0::SimdFloatMultAcc            0      0.00%     57.17% # Class of committed instruction
system.cpu0.commit.op_class_0::SimdFloatSqrt            0      0.00%     57.17% # Class of committed instruction
system.cpu0.commit.op_class_0::SimdReduceAdd            0      0.00%     57.17% # Class of committed instruction
system.cpu0.commit.op_class_0::SimdReduceAlu            0      0.00%     57.17% # Class of committed instruction
system.cpu0.commit.op_class_0::SimdReduceCmp            0      0.00%     57.17% # Class of committed instruction
system.cpu0.commit.op_class_0::SimdFloatReduceAdd            0      0.00%     57.17% # Class of committed instruction
system.cpu0.commit.op_class_0::SimdFloatReduceCmp            0      0.00%     57.17% # Class of committed instruction
system.cpu0.commit.op_class_0::SimdAes              0      0.00%     57.17% # Class of committed instruction
system.cpu0.commit.op_class_0::SimdAesMix            0      0.00%     57.17% # Class of committed instruction
system.cpu0.commit.op_class_0::SimdSha1Hash            0      0.00%     57.17% # Class of committed instruction
system.cpu0.commit.op_class_0::SimdSha1Hash2            0      0.00%     57.17% # Class of committed instruction
system.cpu0.commit.op_class_0::SimdSha256Hash            0      0.00%     57.17% # Class of committed instruction
system.cpu0.commit.op_class_0::SimdSha256Hash2            0      0.00%     57.17% # Class of committed instruction
system.cpu0.commit.op_class_0::SimdShaSigma2            0      0.00%     57.17% # Class of committed instruction
system.cpu0.commit.op_class_0::SimdShaSigma3            0      0.00%     57.17% # Class of committed instruction
system.cpu0.commit.op_class_0::SimdPredAlu            0      0.00%     57.17% # Class of committed instruction
system.cpu0.commit.op_class_0::MemRead      389748068     31.14%     88.31% # Class of committed instruction
system.cpu0.commit.op_class_0::MemWrite     146255429     11.69%    100.00% # Class of committed instruction
system.cpu0.commit.op_class_0::FloatMemRead            8      0.00%    100.00% # Class of committed instruction
system.cpu0.commit.op_class_0::FloatMemWrite           20      0.00%    100.00% # Class of committed instruction
system.cpu0.commit.op_class_0::IprAccess            0      0.00%    100.00% # Class of committed instruction
system.cpu0.commit.op_class_0::InstPrefetch            0      0.00%    100.00% # Class of committed instruction
system.cpu0.commit.op_class_0::total       1251562406                       # Class of committed instruction
system.cpu0.commit.refs                     536003525                       # Number of memory references committed
system.cpu0.commit.swp_count                        0                       # Number of s/w prefetches committed
system.cpu0.commit.vec_insts                        0                       # Number of committed Vector instructions.
system.cpu0.committedInsts                 1250508636                       # Number of Instructions Simulated
system.cpu0.committedOps                   1251562406                       # Number of Ops (including micro ops) Simulated
system.cpu0.cpi                              2.273309                       # CPI: Cycles Per Instruction
system.cpu0.cpi_total                        2.273309                       # CPI: Total CPI of All Threads
system.cpu0.decode.BlockedCycles            272342286                       # Number of cycles decode is blocked
system.cpu0.decode.BranchMispred              6584944                       # Number of times decode detected a branch misprediction
system.cpu0.decode.BranchResolved           169207851                       # Number of times decode resolved a branch
system.cpu0.decode.DecodedInsts            1348670884                       # Number of instructions handled by decode
system.cpu0.decode.IdleCycles               995558069                       # Number of cycles decode is idle
system.cpu0.decode.RunCycles                934478008                       # Number of cycles decode is running
system.cpu0.decode.SquashCycles              10020184                       # Number of cycles decode is squashing
system.cpu0.decode.SquashedInsts             13615078                       # Number of squashed instructions handled by decode
system.cpu0.decode.UnblockCycles              4109513                       # Number of cycles decode is unblocking
system.cpu0.dtb.accesses                            0                       # DTB accesses
system.cpu0.dtb.hits                                0                       # DTB hits
system.cpu0.dtb.misses                              0                       # DTB misses
system.cpu0.dtb.read_accesses                       0                       # DTB read accesses
system.cpu0.dtb.read_hits                           0                       # DTB read hits
system.cpu0.dtb.read_misses                         0                       # DTB read misses
system.cpu0.dtb.write_accesses                      0                       # DTB write accesses
system.cpu0.dtb.write_hits                          0                       # DTB write hits
system.cpu0.dtb.write_misses                        0                       # DTB write misses
system.cpu0.fetch.Branches                  333827135                       # Number of branches that fetch encountered
system.cpu0.fetch.CacheLines                248778038                       # Number of cache lines fetched
system.cpu0.fetch.Cycles                   1227926448                       # Number of cycles fetch has run and was not squashing or blocked
system.cpu0.fetch.IcacheSquashes              5237883                       # Number of outstanding Icache misses that were squashed
system.cpu0.fetch.IcacheWaitRetryStallCycles           94                       # Number of stall cycles due to full MSHR
system.cpu0.fetch.Insts                    1379912403                       # Number of instructions fetch has processed
system.cpu0.fetch.MiscStallCycles                  85                       # Number of cycles fetch has spent waiting on interrupts, or bad addresses, or out of MSHRs
system.cpu0.fetch.PendingTrapStallCycles          440                       # Number of stall cycles due to pending traps
system.cpu0.fetch.SquashCycles               33154876                       # Number of cycles fetch has spent squashing
system.cpu0.fetch.branchRate                 0.117429                       # Number of branch fetches per cycle
system.cpu0.fetch.icacheStallCycles         972003555                       # Number of cycles fetch is stalled on an Icache miss
system.cpu0.fetch.predictedBranches         191404321                       # Number of branches that fetch has predicted taken
system.cpu0.fetch.rate                       0.485407                       # Number of inst fetches per cycle
system.cpu0.fetch.rateDist::samples        2216508060                       # Number of instructions fetched each cycle (Total)
system.cpu0.fetch.rateDist::mean             0.624157                       # Number of instructions fetched each cycle (Total)
system.cpu0.fetch.rateDist::stdev            0.902213                       # Number of instructions fetched each cycle (Total)
system.cpu0.fetch.rateDist::underflows              0      0.00%      0.00% # Number of instructions fetched each cycle (Total)
system.cpu0.fetch.rateDist::0              1241986722     56.03%     56.03% # Number of instructions fetched each cycle (Total)
system.cpu0.fetch.rateDist::1               726025304     32.76%     88.79% # Number of instructions fetched each cycle (Total)
system.cpu0.fetch.rateDist::2               128587721      5.80%     94.59% # Number of instructions fetched each cycle (Total)
system.cpu0.fetch.rateDist::3                98123314      4.43%     99.02% # Number of instructions fetched each cycle (Total)
system.cpu0.fetch.rateDist::4                12333026      0.56%     99.57% # Number of instructions fetched each cycle (Total)
system.cpu0.fetch.rateDist::5                 4379525      0.20%     99.77% # Number of instructions fetched each cycle (Total)
system.cpu0.fetch.rateDist::6                  863231      0.04%     99.81% # Number of instructions fetched each cycle (Total)
system.cpu0.fetch.rateDist::7                 4204504      0.19%    100.00% # Number of instructions fetched each cycle (Total)
system.cpu0.fetch.rateDist::8                    4713      0.00%    100.00% # Number of instructions fetched each cycle (Total)
system.cpu0.fetch.rateDist::overflows               0      0.00%    100.00% # Number of instructions fetched each cycle (Total)
system.cpu0.fetch.rateDist::min_value               0                       # Number of instructions fetched each cycle (Total)
system.cpu0.fetch.rateDist::max_value               8                       # Number of instructions fetched each cycle (Total)
system.cpu0.fetch.rateDist::total          2216508060                       # Number of instructions fetched each cycle (Total)
system.cpu0.fp_regfile_reads                       44                       # number of floating regfile reads
system.cpu0.fp_regfile_writes                      23                       # number of floating regfile writes
system.cpu0.idleCycles                      626284206                       # Total number of cycles that the CPU has spent unscheduled due to idling
system.cpu0.iew.branchMispredicts            10074341                       # Number of branch mispredicts detected at execute
system.cpu0.iew.exec_branches               321268774                       # Number of branches executed
system.cpu0.iew.exec_nop                            0                       # number of nop insts executed
system.cpu0.iew.exec_rate                    0.453673                       # Inst execution rate
system.cpu0.iew.exec_refs                   556786917                       # number of memory reference insts executed
system.cpu0.iew.exec_stores                 150046689                       # Number of stores executed
system.cpu0.iew.exec_swp                            0                       # number of swp insts executed
system.cpu0.iew.iewBlockCycles              207387277                       # Number of cycles IEW is blocking
system.cpu0.iew.iewDispLoadInsts            416017906                       # Number of dispatched load instructions
system.cpu0.iew.iewDispNonSpecInsts           2392472                       # Number of dispatched non-speculative instructions
system.cpu0.iew.iewDispSquashedInsts          5518250                       # Number of squashed instructions skipped by dispatch
system.cpu0.iew.iewDispStoreInsts           153433854                       # Number of dispatched store instructions
system.cpu0.iew.iewDispatchedInsts         1320452734                       # Number of instructions dispatched to IQ
system.cpu0.iew.iewExecLoadInsts            406740228                       # Number of load instructions executed
system.cpu0.iew.iewExecSquashedInsts          7270630                       # Number of squashed instructions skipped in execute
system.cpu0.iew.iewExecutedInsts           1289699504                       # Number of executed instructions
system.cpu0.iew.iewIQFullEvents               1289549                       # Number of times the IQ has become full, causing a stall
system.cpu0.iew.iewIdleCycles                       0                       # Number of cycles IEW is idle
system.cpu0.iew.iewLSQFullEvents             10911467                       # Number of times the LSQ has become full, causing a stall
system.cpu0.iew.iewSquashCycles              10020184                       # Number of cycles IEW is squashing
system.cpu0.iew.iewUnblockCycles             13326646                       # Number of cycles IEW is unblocking
system.cpu0.iew.lsq.thread0.blockedLoads            0                       # Number of blocked loads due to partial load-store forwarding
system.cpu0.iew.lsq.thread0.cacheBlocked       161158                       # Number of times an access to memory failed due to the cache being blocked
system.cpu0.iew.lsq.thread0.forwLoads        23860032                       # Number of loads that had data forwarded from stores
system.cpu0.iew.lsq.thread0.ignoredResponses        17365                       # Number of memory responses ignored because the instruction is squashed
system.cpu0.iew.lsq.thread0.invAddrLoads            0                       # Number of loads ignored due to an invalid address
system.cpu0.iew.lsq.thread0.invAddrSwpfs            0                       # Number of software prefetches ignored due to an invalid address
system.cpu0.iew.lsq.thread0.memOrderViolation         9204                       # Number of memory ordering violations
system.cpu0.iew.lsq.thread0.rescheduledLoads      4605250                       # Number of loads that were rescheduled
system.cpu0.iew.lsq.thread0.squashedLoads     27320310                       # Number of loads squashed
system.cpu0.iew.lsq.thread0.squashedStores      6127925                       # Number of stores squashed
system.cpu0.iew.memOrderViolationEvents          9204                       # Number of memory order violations
system.cpu0.iew.predictedNotTakenIncorrect       681474                       # Number of branches that were predicted not taken incorrectly
system.cpu0.iew.predictedTakenIncorrect       9392867                       # Number of branches that were predicted taken incorrectly
system.cpu0.iew.wb_consumers                552252405                       # num instructions consuming a value
system.cpu0.iew.wb_count                   1281063404                       # cumulative count of insts written-back
system.cpu0.iew.wb_fanout                    0.883588                       # average fanout of values written-back
system.cpu0.iew.wb_producers                487963503                       # num instructions producing a value
system.cpu0.iew.wb_rate                      0.450636                       # insts written-back per cycle
system.cpu0.iew.wb_sent                    1281124352                       # cumulative count of insts sent to commit
system.cpu0.int_regfile_reads              1582780151                       # number of integer regfile reads
system.cpu0.int_regfile_writes              820017348                       # number of integer regfile writes
system.cpu0.ipc                              0.439887                       # IPC: Instructions Per Cycle
system.cpu0.ipc_total                        0.439887                       # IPC: Total IPC of All Threads
system.cpu0.iq.FU_type_0::No_OpClass          2106220      0.16%      0.16% # Type of FU issued
system.cpu0.iq.FU_type_0::IntAlu            719745674     55.49%     55.66% # Type of FU issued
system.cpu0.iq.FU_type_0::IntMult            11834371      0.91%     56.57% # Type of FU issued
system.cpu0.iq.FU_type_0::IntDiv              2100410      0.16%     56.73% # Type of FU issued
system.cpu0.iq.FU_type_0::FloatAdd                  0      0.00%     56.73% # Type of FU issued
system.cpu0.iq.FU_type_0::FloatCmp                  4      0.00%     56.73% # Type of FU issued
system.cpu0.iq.FU_type_0::FloatCvt                 12      0.00%     56.73% # Type of FU issued
system.cpu0.iq.FU_type_0::FloatMult                 0      0.00%     56.73% # Type of FU issued
system.cpu0.iq.FU_type_0::FloatMultAcc              0      0.00%     56.73% # Type of FU issued
system.cpu0.iq.FU_type_0::FloatDiv                  2      0.00%     56.73% # Type of FU issued
system.cpu0.iq.FU_type_0::FloatMisc                 4      0.00%     56.73% # Type of FU issued
system.cpu0.iq.FU_type_0::FloatSqrt                 0      0.00%     56.73% # Type of FU issued
system.cpu0.iq.FU_type_0::SimdAdd                   0      0.00%     56.73% # Type of FU issued
system.cpu0.iq.FU_type_0::SimdAddAcc                0      0.00%     56.73% # Type of FU issued
system.cpu0.iq.FU_type_0::SimdAlu                   0      0.00%     56.73% # Type of FU issued
system.cpu0.iq.FU_type_0::SimdCmp                   0      0.00%     56.73% # Type of FU issued
system.cpu0.iq.FU_type_0::SimdCvt                   0      0.00%     56.73% # Type of FU issued
system.cpu0.iq.FU_type_0::SimdMisc                  0      0.00%     56.73% # Type of FU issued
system.cpu0.iq.FU_type_0::SimdMult                  0      0.00%     56.73% # Type of FU issued
system.cpu0.iq.FU_type_0::SimdMultAcc               0      0.00%     56.73% # Type of FU issued
system.cpu0.iq.FU_type_0::SimdShift                 0      0.00%     56.73% # Type of FU issued
system.cpu0.iq.FU_type_0::SimdShiftAcc              0      0.00%     56.73% # Type of FU issued
system.cpu0.iq.FU_type_0::SimdDiv                   0      0.00%     56.73% # Type of FU issued
system.cpu0.iq.FU_type_0::SimdSqrt                  0      0.00%     56.73% # Type of FU issued
system.cpu0.iq.FU_type_0::SimdFloatAdd              0      0.00%     56.73% # Type of FU issued
system.cpu0.iq.FU_type_0::SimdFloatAlu              0      0.00%     56.73% # Type of FU issued
system.cpu0.iq.FU_type_0::SimdFloatCmp              0      0.00%     56.73% # Type of FU issued
system.cpu0.iq.FU_type_0::SimdFloatCvt              0      0.00%     56.73% # Type of FU issued
system.cpu0.iq.FU_type_0::SimdFloatDiv              0      0.00%     56.73% # Type of FU issued
system.cpu0.iq.FU_type_0::SimdFloatMisc             0      0.00%     56.73% # Type of FU issued
system.cpu0.iq.FU_type_0::SimdFloatMult             0      0.00%     56.73% # Type of FU issued
system.cpu0.iq.FU_type_0::SimdFloatMultAcc            0      0.00%     56.73% # Type of FU issued
system.cpu0.iq.FU_type_0::SimdFloatSqrt             0      0.00%     56.73% # Type of FU issued
system.cpu0.iq.FU_type_0::SimdReduceAdd             0      0.00%     56.73% # Type of FU issued
system.cpu0.iq.FU_type_0::SimdReduceAlu             0      0.00%     56.73% # Type of FU issued
system.cpu0.iq.FU_type_0::SimdReduceCmp             0      0.00%     56.73% # Type of FU issued
system.cpu0.iq.FU_type_0::SimdFloatReduceAdd            0      0.00%     56.73% # Type of FU issued
system.cpu0.iq.FU_type_0::SimdFloatReduceCmp            0      0.00%     56.73% # Type of FU issued
system.cpu0.iq.FU_type_0::SimdAes                   0      0.00%     56.73% # Type of FU issued
system.cpu0.iq.FU_type_0::SimdAesMix                0      0.00%     56.73% # Type of FU issued
system.cpu0.iq.FU_type_0::SimdSha1Hash              0      0.00%     56.73% # Type of FU issued
system.cpu0.iq.FU_type_0::SimdSha1Hash2             0      0.00%     56.73% # Type of FU issued
system.cpu0.iq.FU_type_0::SimdSha256Hash            0      0.00%     56.73% # Type of FU issued
system.cpu0.iq.FU_type_0::SimdSha256Hash2            0      0.00%     56.73% # Type of FU issued
system.cpu0.iq.FU_type_0::SimdShaSigma2             0      0.00%     56.73% # Type of FU issued
system.cpu0.iq.FU_type_0::SimdShaSigma3             0      0.00%     56.73% # Type of FU issued
system.cpu0.iq.FU_type_0::SimdPredAlu               0      0.00%     56.73% # Type of FU issued
system.cpu0.iq.FU_type_0::MemRead           411809271     31.75%     88.48% # Type of FU issued
system.cpu0.iq.FU_type_0::MemWrite          149374137     11.52%    100.00% # Type of FU issued
system.cpu0.iq.FU_type_0::FloatMemRead             10      0.00%    100.00% # Type of FU issued
system.cpu0.iq.FU_type_0::FloatMemWrite            20      0.00%    100.00% # Type of FU issued
system.cpu0.iq.FU_type_0::IprAccess                 0      0.00%    100.00% # Type of FU issued
system.cpu0.iq.FU_type_0::InstPrefetch              0      0.00%    100.00% # Type of FU issued
system.cpu0.iq.FU_type_0::total            1296970135                       # Type of FU issued
system.cpu0.iq.fp_alu_accesses                     54                       # Number of floating point alu accesses
system.cpu0.iq.fp_inst_queue_reads                106                       # Number of floating instruction queue reads
system.cpu0.iq.fp_inst_queue_wakeup_accesses           51                       # Number of floating instruction queue wakeup accesses
system.cpu0.iq.fp_inst_queue_writes                52                       # Number of floating instruction queue writes
system.cpu0.iq.fu_busy_cnt                    2243778                       # FU busy when requested
system.cpu0.iq.fu_busy_rate                  0.001730                       # FU busy rate (busy events/executed inst)
system.cpu0.iq.fu_full::No_OpClass                  0      0.00%      0.00% # attempts to use FU when none available
system.cpu0.iq.fu_full::IntAlu                 402824     17.95%     17.95% # attempts to use FU when none available
system.cpu0.iq.fu_full::IntMult                     0      0.00%     17.95% # attempts to use FU when none available
system.cpu0.iq.fu_full::IntDiv                      0      0.00%     17.95% # attempts to use FU when none available
system.cpu0.iq.fu_full::FloatAdd                    0      0.00%     17.95% # attempts to use FU when none available
system.cpu0.iq.fu_full::FloatCmp                    0      0.00%     17.95% # attempts to use FU when none available
system.cpu0.iq.fu_full::FloatCvt                    0      0.00%     17.95% # attempts to use FU when none available
system.cpu0.iq.fu_full::FloatMult                   0      0.00%     17.95% # attempts to use FU when none available
system.cpu0.iq.fu_full::FloatMultAcc                0      0.00%     17.95% # attempts to use FU when none available
system.cpu0.iq.fu_full::FloatDiv                    0      0.00%     17.95% # attempts to use FU when none available
system.cpu0.iq.fu_full::FloatMisc                   0      0.00%     17.95% # attempts to use FU when none available
system.cpu0.iq.fu_full::FloatSqrt                   0      0.00%     17.95% # attempts to use FU when none available
system.cpu0.iq.fu_full::SimdAdd                     0      0.00%     17.95% # attempts to use FU when none available
system.cpu0.iq.fu_full::SimdAddAcc                  0      0.00%     17.95% # attempts to use FU when none available
system.cpu0.iq.fu_full::SimdAlu                     0      0.00%     17.95% # attempts to use FU when none available
system.cpu0.iq.fu_full::SimdCmp                     0      0.00%     17.95% # attempts to use FU when none available
system.cpu0.iq.fu_full::SimdCvt                     0      0.00%     17.95% # attempts to use FU when none available
system.cpu0.iq.fu_full::SimdMisc                    0      0.00%     17.95% # attempts to use FU when none available
system.cpu0.iq.fu_full::SimdMult                    0      0.00%     17.95% # attempts to use FU when none available
system.cpu0.iq.fu_full::SimdMultAcc                 0      0.00%     17.95% # attempts to use FU when none available
system.cpu0.iq.fu_full::SimdShift                   0      0.00%     17.95% # attempts to use FU when none available
system.cpu0.iq.fu_full::SimdShiftAcc                0      0.00%     17.95% # attempts to use FU when none available
system.cpu0.iq.fu_full::SimdDiv                     0      0.00%     17.95% # attempts to use FU when none available
system.cpu0.iq.fu_full::SimdSqrt                    0      0.00%     17.95% # attempts to use FU when none available
system.cpu0.iq.fu_full::SimdFloatAdd                0      0.00%     17.95% # attempts to use FU when none available
system.cpu0.iq.fu_full::SimdFloatAlu                0      0.00%     17.95% # attempts to use FU when none available
system.cpu0.iq.fu_full::SimdFloatCmp                0      0.00%     17.95% # attempts to use FU when none available
system.cpu0.iq.fu_full::SimdFloatCvt                0      0.00%     17.95% # attempts to use FU when none available
system.cpu0.iq.fu_full::SimdFloatDiv                0      0.00%     17.95% # attempts to use FU when none available
system.cpu0.iq.fu_full::SimdFloatMisc               0      0.00%     17.95% # attempts to use FU when none available
system.cpu0.iq.fu_full::SimdFloatMult               0      0.00%     17.95% # attempts to use FU when none available
system.cpu0.iq.fu_full::SimdFloatMultAcc            0      0.00%     17.95% # attempts to use FU when none available
system.cpu0.iq.fu_full::SimdFloatSqrt               0      0.00%     17.95% # attempts to use FU when none available
system.cpu0.iq.fu_full::SimdReduceAdd               0      0.00%     17.95% # attempts to use FU when none available
system.cpu0.iq.fu_full::SimdReduceAlu               0      0.00%     17.95% # attempts to use FU when none available
system.cpu0.iq.fu_full::SimdReduceCmp               0      0.00%     17.95% # attempts to use FU when none available
system.cpu0.iq.fu_full::SimdFloatReduceAdd            0      0.00%     17.95% # attempts to use FU when none available
system.cpu0.iq.fu_full::SimdFloatReduceCmp            0      0.00%     17.95% # attempts to use FU when none available
system.cpu0.iq.fu_full::SimdAes                     0      0.00%     17.95% # attempts to use FU when none available
system.cpu0.iq.fu_full::SimdAesMix                  0      0.00%     17.95% # attempts to use FU when none available
system.cpu0.iq.fu_full::SimdSha1Hash                0      0.00%     17.95% # attempts to use FU when none available
system.cpu0.iq.fu_full::SimdSha1Hash2               0      0.00%     17.95% # attempts to use FU when none available
system.cpu0.iq.fu_full::SimdSha256Hash              0      0.00%     17.95% # attempts to use FU when none available
system.cpu0.iq.fu_full::SimdSha256Hash2             0      0.00%     17.95% # attempts to use FU when none available
system.cpu0.iq.fu_full::SimdShaSigma2               0      0.00%     17.95% # attempts to use FU when none available
system.cpu0.iq.fu_full::SimdShaSigma3               0      0.00%     17.95% # attempts to use FU when none available
system.cpu0.iq.fu_full::SimdPredAlu                 0      0.00%     17.95% # attempts to use FU when none available
system.cpu0.iq.fu_full::MemRead               1597636     71.20%     89.16% # attempts to use FU when none available
system.cpu0.iq.fu_full::MemWrite               243316     10.84%    100.00% # attempts to use FU when none available
system.cpu0.iq.fu_full::FloatMemRead                0      0.00%    100.00% # attempts to use FU when none available
system.cpu0.iq.fu_full::FloatMemWrite               2      0.00%    100.00% # attempts to use FU when none available
system.cpu0.iq.fu_full::IprAccess                   0      0.00%    100.00% # attempts to use FU when none available
system.cpu0.iq.fu_full::InstPrefetch                0      0.00%    100.00% # attempts to use FU when none available
system.cpu0.iq.int_alu_accesses            1297107639                       # Number of integer alu accesses
system.cpu0.iq.int_inst_queue_reads        4812814861                       # Number of integer instruction queue reads
system.cpu0.iq.int_inst_queue_wakeup_accesses   1281063353                       # Number of integer instruction queue wakeup accesses
system.cpu0.iq.int_inst_queue_writes       1389351896                       # Number of integer instruction queue writes
system.cpu0.iq.iqInstsAdded                1313277853                       # Number of instructions added to the IQ (excludes non-spec)
system.cpu0.iq.iqInstsIssued               1296970135                       # Number of instructions issued
system.cpu0.iq.iqNonSpecInstsAdded            7174881                       # Number of non-speculative instructions added to the IQ
system.cpu0.iq.iqSquashedInstsExamined       68890324                       # Number of squashed instructions iterated over during squash; mainly for profiling
system.cpu0.iq.iqSquashedInstsIssued           122860                       # Number of squashed instructions issued
system.cpu0.iq.iqSquashedNonSpecRemoved       4014183                       # Number of squashed non-spec instructions that were removed
system.cpu0.iq.iqSquashedOperandsExamined     40531334                       # Number of squashed operands that are examined and possibly removed from graph
system.cpu0.iq.issued_per_cycle::samples   2216508060                       # Number of insts issued each cycle
system.cpu0.iq.issued_per_cycle::mean        0.585141                       # Number of insts issued each cycle
system.cpu0.iq.issued_per_cycle::stdev       0.815037                       # Number of insts issued each cycle
system.cpu0.iq.issued_per_cycle::underflows            0      0.00%      0.00% # Number of insts issued each cycle
system.cpu0.iq.issued_per_cycle::0         1270325948     57.31%     57.31% # Number of insts issued each cycle
system.cpu0.iq.issued_per_cycle::1          675367528     30.47%     87.78% # Number of insts issued each cycle
system.cpu0.iq.issued_per_cycle::2          213209312      9.62%     97.40% # Number of insts issued each cycle
system.cpu0.iq.issued_per_cycle::3           43595442      1.97%     99.37% # Number of insts issued each cycle
system.cpu0.iq.issued_per_cycle::4            9680295      0.44%     99.80% # Number of insts issued each cycle
system.cpu0.iq.issued_per_cycle::5            1659211      0.07%     99.88% # Number of insts issued each cycle
system.cpu0.iq.issued_per_cycle::6            1603467      0.07%     99.95% # Number of insts issued each cycle
system.cpu0.iq.issued_per_cycle::7             775236      0.03%     99.99% # Number of insts issued each cycle
system.cpu0.iq.issued_per_cycle::8             291621      0.01%    100.00% # Number of insts issued each cycle
system.cpu0.iq.issued_per_cycle::overflows            0      0.00%    100.00% # Number of insts issued each cycle
system.cpu0.iq.issued_per_cycle::min_value            0                       # Number of insts issued each cycle
system.cpu0.iq.issued_per_cycle::max_value            8                       # Number of insts issued each cycle
system.cpu0.iq.issued_per_cycle::total     2216508060                       # Number of insts issued each cycle
system.cpu0.iq.rate                          0.456231                       # Inst issue rate
system.cpu0.iq.vec_alu_accesses                     0                       # Number of vector alu accesses
system.cpu0.iq.vec_inst_queue_reads                 0                       # Number of vector instruction queue reads
system.cpu0.iq.vec_inst_queue_wakeup_accesses            0                       # Number of vector instruction queue wakeup accesses
system.cpu0.iq.vec_inst_queue_writes                0                       # Number of vector instruction queue writes
system.cpu0.itb.accesses                            0                       # DTB accesses
system.cpu0.itb.hits                                0                       # DTB hits
system.cpu0.itb.misses                              0                       # DTB misses
system.cpu0.itb.read_accesses                       0                       # DTB read accesses
system.cpu0.itb.read_hits                           0                       # DTB read hits
system.cpu0.itb.read_misses                         0                       # DTB read misses
system.cpu0.itb.write_accesses                      0                       # DTB write accesses
system.cpu0.itb.write_hits                          0                       # DTB write hits
system.cpu0.itb.write_misses                        0                       # DTB write misses
system.cpu0.memDep0.conflictingLoads         23758598                       # Number of conflicting loads.
system.cpu0.memDep0.conflictingStores         3440561                       # Number of conflicting stores.
system.cpu0.memDep0.insertedLoads           416017906                       # Number of loads inserted to the mem dependence unit.
system.cpu0.memDep0.insertedStores          153433854                       # Number of stores inserted to the mem dependence unit.
system.cpu0.misc_regfile_reads                   2084                       # number of misc regfile reads
system.cpu0.misc_regfile_writes                    22                       # number of misc regfile writes
system.cpu0.numCycles                      2842792266                       # number of cpu cycles simulated
system.cpu0.numWorkItemsCompleted                   0                       # number of work items this cpu completed
system.cpu0.numWorkItemsStarted                     0                       # number of work items this cpu started
system.cpu0.quiesceCycles                     6720997                       # Total number of cycles that CPU has spent quiesced or waiting for an interrupt
system.cpu0.rename.BlockCycles              226866349                       # Number of cycles rename is blocking
system.cpu0.rename.CommittedMaps            800535921                       # Number of HB maps that are committed
system.cpu0.rename.IQFullEvents               5070910                       # Number of times rename has blocked due to IQ full
system.cpu0.rename.IdleCycles              1009961411                       # Number of cycles rename is idle
system.cpu0.rename.LQFullEvents              22053404                       # Number of times rename has blocked due to LQ full
system.cpu0.rename.ROBFullEvents                13190                       # Number of times rename has blocked due to ROB full
system.cpu0.rename.RenameLookups           1634633212                       # Number of register rename lookups that rename has made
system.cpu0.rename.RenamedInsts            1334906232                       # Number of instructions processed by rename
system.cpu0.rename.RenamedOperands          863077705                       # Number of destination operands rename has renamed
system.cpu0.rename.RunCycles                923225956                       # Number of cycles rename is running
system.cpu0.rename.SQFullEvents              18783942                       # Number of times rename has blocked due to SQ full
system.cpu0.rename.SquashCycles              10020184                       # Number of cycles rename is squashing
system.cpu0.rename.UnblockCycles             46266187                       # Number of cycles rename is unblocking
system.cpu0.rename.UndoneMaps                62541779                       # Number of HB maps that are undone due to squashing
system.cpu0.rename.fp_rename_lookups               44                       # Number of floating rename lookups
system.cpu0.rename.int_rename_lookups      1634633168                       # Number of integer rename lookups
system.cpu0.rename.serializeStallCycles        167973                       # count of cycles rename stalled for serializing inst
system.cpu0.rename.serializingInsts              6328                       # count of serializing insts renamed
system.cpu0.rename.skidInsts                 14253270                       # count of insts added to the skid buffer
system.cpu0.rename.tempSerializingInsts          6281                       # count of temporary serializing insts renamed
system.cpu0.rob.rob_reads                  3483667135                       # The number of ROB reads
system.cpu0.rob.rob_writes                 2656491503                       # The number of ROB writes
system.cpu0.timesIdled                       33313979                       # Number of times that the entire CPU went into an idle state and unscheduled itself
system.cpu0.workload.numSyscalls                 2051                       # Number of system calls
system.cpu1.branchPred.BTBCorrect                   0                       # Number of correct BTB predictions (this stat may not work properly.
system.cpu1.branchPred.BTBHitPct            83.485102                       # BTB Hit Percentage
system.cpu1.branchPred.BTBHits               14751300                       # Number of BTB hits
system.cpu1.branchPred.BTBLookups            17669380                       # Number of BTB lookups
system.cpu1.branchPred.RASInCorrect                 0                       # Number of incorrect RAS predictions.
system.cpu1.branchPred.condIncorrect          3058647                       # Number of conditional branches incorrect
system.cpu1.branchPred.condPredicted         24104939                       # Number of conditional branches predicted
system.cpu1.branchPred.indirectHits            668041                       # Number of indirect target hits.
system.cpu1.branchPred.indirectLookups         748191                       # Number of indirect predictor lookups.
system.cpu1.branchPred.indirectMisses           80150                       # Number of indirect misses.
system.cpu1.branchPred.lookups               27493213                       # Number of BP lookups
system.cpu1.branchPred.usedRAS                      0                       # Number of times the RAS was used to get a target.
system.cpu1.branchPredindirectMispredicted        42914                       # Number of mispredicted indirect branches.
system.cpu1.commit.amos                       1050202                       # Number of atomic instructions committed
system.cpu1.commit.branchMispredicts          1971247                       # The number of times a branch was mispredicted
system.cpu1.commit.branches                  16230525                       # Number of branches committed
system.cpu1.commit.bw_lim_events              2311787                       # number cycles where commit BW limit reached
system.cpu1.commit.commitNonSpecStalls        3151349                       # The number of times commit has been forced to stall to communicate backwards
system.cpu1.commit.commitSquashedInsts       31975065                       # The number of squashed insts skipped by commit
system.cpu1.commit.committedInsts            67688529                       # Number of instructions committed
system.cpu1.commit.committedOps              68738936                       # Number of ops (including micro ops) committed
system.cpu1.commit.committed_per_cycle::samples    306819183                       # Number of insts commited each cycle
system.cpu1.commit.committed_per_cycle::mean     0.224037                       # Number of insts commited each cycle
system.cpu1.commit.committed_per_cycle::stdev     0.949580                       # Number of insts commited each cycle
system.cpu1.commit.committed_per_cycle::underflows            0      0.00%      0.00% # Number of insts commited each cycle
system.cpu1.commit.committed_per_cycle::0    278507741     90.77%     90.77% # Number of insts commited each cycle
system.cpu1.commit.committed_per_cycle::1     14045999      4.58%     95.35% # Number of insts commited each cycle
system.cpu1.commit.committed_per_cycle::2      5320327      1.73%     97.08% # Number of insts commited each cycle
system.cpu1.commit.committed_per_cycle::3      4071846      1.33%     98.41% # Number of insts commited each cycle
system.cpu1.commit.committed_per_cycle::4       891010      0.29%     98.70% # Number of insts commited each cycle
system.cpu1.commit.committed_per_cycle::5       457793      0.15%     98.85% # Number of insts commited each cycle
system.cpu1.commit.committed_per_cycle::6       999316      0.33%     99.18% # Number of insts commited each cycle
system.cpu1.commit.committed_per_cycle::7       213364      0.07%     99.25% # Number of insts commited each cycle
system.cpu1.commit.committed_per_cycle::8      2311787      0.75%    100.00% # Number of insts commited each cycle
system.cpu1.commit.committed_per_cycle::overflows            0      0.00%    100.00% # Number of insts commited each cycle
system.cpu1.commit.committed_per_cycle::min_value            0                       # Number of insts commited each cycle
system.cpu1.commit.committed_per_cycle::max_value            8                       # Number of insts commited each cycle
system.cpu1.commit.committed_per_cycle::total    306819183                       # Number of insts commited each cycle
system.cpu1.commit.fp_insts                        12                       # Number of committed floating point instructions.
system.cpu1.commit.function_calls             1075089                       # Number of function calls committed.
system.cpu1.commit.int_insts                 65723401                       # Number of committed integer instructions.
system.cpu1.commit.loads                     16753470                       # Number of loads committed
system.cpu1.commit.membars                    2100496                       # Number of memory barriers committed
system.cpu1.commit.op_class_0::No_OpClass      2100496      3.06%      3.06% # Class of committed instruction
system.cpu1.commit.op_class_0::IntAlu        43608147     63.44%     66.50% # Class of committed instruction
system.cpu1.commit.op_class_0::IntMult             44      0.00%     66.50% # Class of committed instruction
system.cpu1.commit.op_class_0::IntDiv              88      0.00%     66.50% # Class of committed instruction
system.cpu1.commit.op_class_0::FloatAdd             0      0.00%     66.50% # Class of committed instruction
system.cpu1.commit.op_class_0::FloatCmp             0      0.00%     66.50% # Class of committed instruction
system.cpu1.commit.op_class_0::FloatCvt             0      0.00%     66.50% # Class of committed instruction
system.cpu1.commit.op_class_0::FloatMult            0      0.00%     66.50% # Class of committed instruction
system.cpu1.commit.op_class_0::FloatMultAcc            0      0.00%     66.50% # Class of committed instruction
system.cpu1.commit.op_class_0::FloatDiv             0      0.00%     66.50% # Class of committed instruction
system.cpu1.commit.op_class_0::FloatMisc            0      0.00%     66.50% # Class of committed instruction
system.cpu1.commit.op_class_0::FloatSqrt            0      0.00%     66.50% # Class of committed instruction
system.cpu1.commit.op_class_0::SimdAdd              0      0.00%     66.50% # Class of committed instruction
system.cpu1.commit.op_class_0::SimdAddAcc            0      0.00%     66.50% # Class of committed instruction
system.cpu1.commit.op_class_0::SimdAlu              0      0.00%     66.50% # Class of committed instruction
system.cpu1.commit.op_class_0::SimdCmp              0      0.00%     66.50% # Class of committed instruction
system.cpu1.commit.op_class_0::SimdCvt              0      0.00%     66.50% # Class of committed instruction
system.cpu1.commit.op_class_0::SimdMisc             0      0.00%     66.50% # Class of committed instruction
system.cpu1.commit.op_class_0::SimdMult             0      0.00%     66.50% # Class of committed instruction
system.cpu1.commit.op_class_0::SimdMultAcc            0      0.00%     66.50% # Class of committed instruction
system.cpu1.commit.op_class_0::SimdShift            0      0.00%     66.50% # Class of committed instruction
system.cpu1.commit.op_class_0::SimdShiftAcc            0      0.00%     66.50% # Class of committed instruction
system.cpu1.commit.op_class_0::SimdDiv              0      0.00%     66.50% # Class of committed instruction
system.cpu1.commit.op_class_0::SimdSqrt             0      0.00%     66.50% # Class of committed instruction
system.cpu1.commit.op_class_0::SimdFloatAdd            0      0.00%     66.50% # Class of committed instruction
system.cpu1.commit.op_class_0::SimdFloatAlu            0      0.00%     66.50% # Class of committed instruction
system.cpu1.commit.op_class_0::SimdFloatCmp            0      0.00%     66.50% # Class of committed instruction
system.cpu1.commit.op_class_0::SimdFloatCvt            0      0.00%     66.50% # Class of committed instruction
system.cpu1.commit.op_class_0::SimdFloatDiv            0      0.00%     66.50% # Class of committed instruction
system.cpu1.commit.op_class_0::SimdFloatMisc            0      0.00%     66.50% # Class of committed instruction
system.cpu1.commit.op_class_0::SimdFloatMult            0      0.00%     66.50% # Class of committed instruction
system.cpu1.commit.op_class_0::SimdFloatMultAcc            0      0.00%     66.50% # Class of committed instruction
system.cpu1.commit.op_class_0::SimdFloatSqrt            0      0.00%     66.50% # Class of committed instruction
system.cpu1.commit.op_class_0::SimdReduceAdd            0      0.00%     66.50% # Class of committed instruction
system.cpu1.commit.op_class_0::SimdReduceAlu            0      0.00%     66.50% # Class of committed instruction
system.cpu1.commit.op_class_0::SimdReduceCmp            0      0.00%     66.50% # Class of committed instruction
system.cpu1.commit.op_class_0::SimdFloatReduceAdd            0      0.00%     66.50% # Class of committed instruction
system.cpu1.commit.op_class_0::SimdFloatReduceCmp            0      0.00%     66.50% # Class of committed instruction
system.cpu1.commit.op_class_0::SimdAes              0      0.00%     66.50% # Class of committed instruction
system.cpu1.commit.op_class_0::SimdAesMix            0      0.00%     66.50% # Class of committed instruction
system.cpu1.commit.op_class_0::SimdSha1Hash            0      0.00%     66.50% # Class of committed instruction
system.cpu1.commit.op_class_0::SimdSha1Hash2            0      0.00%     66.50% # Class of committed instruction
system.cpu1.commit.op_class_0::SimdSha256Hash            0      0.00%     66.50% # Class of committed instruction
system.cpu1.commit.op_class_0::SimdSha256Hash2            0      0.00%     66.50% # Class of committed instruction
system.cpu1.commit.op_class_0::SimdShaSigma2            0      0.00%     66.50% # Class of committed instruction
system.cpu1.commit.op_class_0::SimdShaSigma3            0      0.00%     66.50% # Class of committed instruction
system.cpu1.commit.op_class_0::SimdPredAlu            0      0.00%     66.50% # Class of committed instruction
system.cpu1.commit.op_class_0::MemRead       17803672     25.90%     92.40% # Class of committed instruction
system.cpu1.commit.op_class_0::MemWrite       5226477      7.60%    100.00% # Class of committed instruction
system.cpu1.commit.op_class_0::FloatMemRead            0      0.00%    100.00% # Class of committed instruction
system.cpu1.commit.op_class_0::FloatMemWrite           12      0.00%    100.00% # Class of committed instruction
system.cpu1.commit.op_class_0::IprAccess            0      0.00%    100.00% # Class of committed instruction
system.cpu1.commit.op_class_0::InstPrefetch            0      0.00%    100.00% # Class of committed instruction
system.cpu1.commit.op_class_0::total         68738936                       # Class of committed instruction
system.cpu1.commit.refs                      23030161                       # Number of memory references committed
system.cpu1.commit.swp_count                        0                       # Number of s/w prefetches committed
system.cpu1.commit.vec_insts                        0                       # Number of committed Vector instructions.
system.cpu1.committedInsts                   67688529                       # Number of Instructions Simulated
system.cpu1.committedOps                     68738936                       # Number of Ops (including micro ops) Simulated
system.cpu1.cpi                              4.618397                       # CPI: Cycles Per Instruction
system.cpu1.cpi_total                        4.618397                       # CPI: Total CPI of All Threads
system.cpu1.decode.BlockedCycles            232357215                       # Number of cycles decode is blocked
system.cpu1.decode.BranchMispred              1121818                       # Number of times decode detected a branch misprediction
system.cpu1.decode.BranchResolved            13484128                       # Number of times decode resolved a branch
system.cpu1.decode.DecodedInsts             109257725                       # Number of instructions handled by decode
system.cpu1.decode.IdleCycles                22413931                       # Number of cycles decode is idle
system.cpu1.decode.RunCycles                 52453204                       # Number of cycles decode is running
system.cpu1.decode.SquashCycles               1972751                       # Number of cycles decode is squashing
system.cpu1.decode.SquashedInsts              2577419                       # Number of squashed instructions handled by decode
system.cpu1.decode.UnblockCycles              2972460                       # Number of cycles decode is unblocking
system.cpu1.dtb.accesses                            0                       # DTB accesses
system.cpu1.dtb.hits                                0                       # DTB hits
system.cpu1.dtb.misses                              0                       # DTB misses
system.cpu1.dtb.read_accesses                       0                       # DTB read accesses
system.cpu1.dtb.read_hits                           0                       # DTB read hits
system.cpu1.dtb.read_misses                         0                       # DTB read misses
system.cpu1.dtb.write_accesses                      0                       # DTB write accesses
system.cpu1.dtb.write_hits                          0                       # DTB write hits
system.cpu1.dtb.write_misses                        0                       # DTB write misses
system.cpu1.fetch.Branches                   27493213                       # Number of branches that fetch encountered
system.cpu1.fetch.CacheLines                 19401187                       # Number of cache lines fetched
system.cpu1.fetch.Cycles                    287887741                       # Number of cycles fetch has run and was not squashing or blocked
system.cpu1.fetch.IcacheSquashes               667043                       # Number of outstanding Icache misses that were squashed
system.cpu1.fetch.Insts                     124524470                       # Number of instructions fetch has processed
system.cpu1.fetch.MiscStallCycles                   1                       # Number of cycles fetch has spent waiting on interrupts, or bad addresses, or out of MSHRs
system.cpu1.fetch.SquashCycles                6120302                       # Number of cycles fetch has spent squashing
system.cpu1.fetch.branchRate                 0.087947                       # Number of branch fetches per cycle
system.cpu1.fetch.icacheStallCycles          21221668                       # Number of cycles fetch is stalled on an Icache miss
system.cpu1.fetch.predictedBranches          15419341                       # Number of branches that fetch has predicted taken
system.cpu1.fetch.rate                       0.398335                       # Number of inst fetches per cycle
system.cpu1.fetch.rateDist::samples         312169561                       # Number of instructions fetched each cycle (Total)
system.cpu1.fetch.rateDist::mean             0.410093                       # Number of instructions fetched each cycle (Total)
system.cpu1.fetch.rateDist::stdev            0.885578                       # Number of instructions fetched each cycle (Total)
system.cpu1.fetch.rateDist::underflows              0      0.00%      0.00% # Number of instructions fetched each cycle (Total)
system.cpu1.fetch.rateDist::0               235932339     75.58%     75.58% # Number of instructions fetched each cycle (Total)
system.cpu1.fetch.rateDist::1                45520058     14.58%     90.16% # Number of instructions fetched each cycle (Total)
system.cpu1.fetch.rateDist::2                17515148      5.61%     95.77% # Number of instructions fetched each cycle (Total)
system.cpu1.fetch.rateDist::3                 8817474      2.82%     98.60% # Number of instructions fetched each cycle (Total)
system.cpu1.fetch.rateDist::4                 1369544      0.44%     99.03% # Number of instructions fetched each cycle (Total)
system.cpu1.fetch.rateDist::5                 2553497      0.82%     99.85% # Number of instructions fetched each cycle (Total)
system.cpu1.fetch.rateDist::6                  460419      0.15%    100.00% # Number of instructions fetched each cycle (Total)
system.cpu1.fetch.rateDist::7                     942      0.00%    100.00% # Number of instructions fetched each cycle (Total)
system.cpu1.fetch.rateDist::8                     140      0.00%    100.00% # Number of instructions fetched each cycle (Total)
system.cpu1.fetch.rateDist::overflows               0      0.00%    100.00% # Number of instructions fetched each cycle (Total)
system.cpu1.fetch.rateDist::min_value               0                       # Number of instructions fetched each cycle (Total)
system.cpu1.fetch.rateDist::max_value               8                       # Number of instructions fetched each cycle (Total)
system.cpu1.fetch.rateDist::total           312169561                       # Number of instructions fetched each cycle (Total)
system.cpu1.fp_regfile_reads                       12                       # number of floating regfile reads
system.cpu1.idleCycles                         442914                       # Total number of cycles that the CPU has spent unscheduled due to idling
system.cpu1.iew.branchMispredicts             2043592                       # Number of branch mispredicts detected at execute
system.cpu1.iew.exec_branches                20006737                       # Number of branches executed
system.cpu1.iew.exec_nop                            0                       # number of nop insts executed
system.cpu1.iew.exec_rate                    0.257220                       # Inst execution rate
system.cpu1.iew.exec_refs                    25917518                       # number of memory reference insts executed
system.cpu1.iew.exec_stores                   6607765                       # Number of stores executed
system.cpu1.iew.exec_swp                            0                       # number of swp insts executed
system.cpu1.iew.iewBlockCycles              197282776                       # Number of cycles IEW is blocking
system.cpu1.iew.iewDispLoadInsts             26275739                       # Number of dispatched load instructions
system.cpu1.iew.iewDispNonSpecInsts           2264063                       # Number of dispatched non-speculative instructions
system.cpu1.iew.iewDispSquashedInsts          1383998                       # Number of squashed instructions skipped by dispatch
system.cpu1.iew.iewDispStoreInsts             9262856                       # Number of dispatched store instructions
system.cpu1.iew.iewDispatchedInsts          100685631                       # Number of instructions dispatched to IQ
system.cpu1.iew.iewExecLoadInsts             19309753                       # Number of load instructions executed
system.cpu1.iew.iewExecSquashedInsts          1353143                       # Number of squashed instructions skipped in execute
system.cpu1.iew.iewExecutedInsts             80410289                       # Number of executed instructions
system.cpu1.iew.iewIQFullEvents                955874                       # Number of times the IQ has become full, causing a stall
system.cpu1.iew.iewIdleCycles                       0                       # Number of cycles IEW is idle
system.cpu1.iew.iewLSQFullEvents              4878132                       # Number of times the LSQ has become full, causing a stall
system.cpu1.iew.iewSquashCycles               1972751                       # Number of cycles IEW is squashing
system.cpu1.iew.iewUnblockCycles              7046198                       # Number of cycles IEW is unblocking
system.cpu1.iew.lsq.thread0.blockedLoads            0                       # Number of blocked loads due to partial load-store forwarding
system.cpu1.iew.lsq.thread0.cacheBlocked        75949                       # Number of times an access to memory failed due to the cache being blocked
system.cpu1.iew.lsq.thread0.forwLoads          713691                       # Number of loads that had data forwarded from stores
system.cpu1.iew.lsq.thread0.ignoredResponses        17523                       # Number of memory responses ignored because the instruction is squashed
system.cpu1.iew.lsq.thread0.invAddrLoads            0                       # Number of loads ignored due to an invalid address
system.cpu1.iew.lsq.thread0.invAddrSwpfs            0                       # Number of software prefetches ignored due to an invalid address
system.cpu1.iew.lsq.thread0.memOrderViolation         2115                       # Number of memory ordering violations
system.cpu1.iew.lsq.thread0.rescheduledLoads        10493                       # Number of loads that were rescheduled
system.cpu1.iew.lsq.thread0.squashedLoads      9522269                       # Number of loads squashed
system.cpu1.iew.lsq.thread0.squashedStores      2986165                       # Number of stores squashed
system.cpu1.iew.memOrderViolationEvents          2115                       # Number of memory order violations
system.cpu1.iew.predictedNotTakenIncorrect       490976                       # Number of branches that were predicted not taken incorrectly
system.cpu1.iew.predictedTakenIncorrect       1552616                       # Number of branches that were predicted taken incorrectly
system.cpu1.iew.wb_consumers                 44521485                       # num instructions consuming a value
system.cpu1.iew.wb_count                     79369813                       # cumulative count of insts written-back
system.cpu1.iew.wb_fanout                    0.826228                       # average fanout of values written-back
system.cpu1.iew.wb_producers                 36784881                       # num instructions producing a value
system.cpu1.iew.wb_rate                      0.253892                       # insts written-back per cycle
system.cpu1.iew.wb_sent                      79419609                       # cumulative count of insts sent to commit
system.cpu1.int_regfile_reads               102981301                       # number of integer regfile reads
system.cpu1.int_regfile_writes               52378458                       # number of integer regfile writes
system.cpu1.ipc                              0.216525                       # IPC: Instructions Per Cycle
system.cpu1.ipc_total                        0.216525                       # IPC: Total IPC of All Threads
system.cpu1.iq.FU_type_0::No_OpClass          2100717      2.57%      2.57% # Type of FU issued
system.cpu1.iq.FU_type_0::IntAlu             53329562     65.22%     67.79% # Type of FU issued
system.cpu1.iq.FU_type_0::IntMult                  55      0.00%     67.79% # Type of FU issued
system.cpu1.iq.FU_type_0::IntDiv                   88      0.00%     67.79% # Type of FU issued
system.cpu1.iq.FU_type_0::FloatAdd                  0      0.00%     67.79% # Type of FU issued
system.cpu1.iq.FU_type_0::FloatCmp                  0      0.00%     67.79% # Type of FU issued
system.cpu1.iq.FU_type_0::FloatCvt                  0      0.00%     67.79% # Type of FU issued
system.cpu1.iq.FU_type_0::FloatMult                 0      0.00%     67.79% # Type of FU issued
system.cpu1.iq.FU_type_0::FloatMultAcc              0      0.00%     67.79% # Type of FU issued
system.cpu1.iq.FU_type_0::FloatDiv                  0      0.00%     67.79% # Type of FU issued
system.cpu1.iq.FU_type_0::FloatMisc                 0      0.00%     67.79% # Type of FU issued
system.cpu1.iq.FU_type_0::FloatSqrt                 0      0.00%     67.79% # Type of FU issued
system.cpu1.iq.FU_type_0::SimdAdd                   0      0.00%     67.79% # Type of FU issued
system.cpu1.iq.FU_type_0::SimdAddAcc                0      0.00%     67.79% # Type of FU issued
system.cpu1.iq.FU_type_0::SimdAlu                   0      0.00%     67.79% # Type of FU issued
system.cpu1.iq.FU_type_0::SimdCmp                   0      0.00%     67.79% # Type of FU issued
system.cpu1.iq.FU_type_0::SimdCvt                   0      0.00%     67.79% # Type of FU issued
system.cpu1.iq.FU_type_0::SimdMisc                  0      0.00%     67.79% # Type of FU issued
system.cpu1.iq.FU_type_0::SimdMult                  0      0.00%     67.79% # Type of FU issued
system.cpu1.iq.FU_type_0::SimdMultAcc               0      0.00%     67.79% # Type of FU issued
system.cpu1.iq.FU_type_0::SimdShift                 0      0.00%     67.79% # Type of FU issued
system.cpu1.iq.FU_type_0::SimdShiftAcc              0      0.00%     67.79% # Type of FU issued
system.cpu1.iq.FU_type_0::SimdDiv                   0      0.00%     67.79% # Type of FU issued
system.cpu1.iq.FU_type_0::SimdSqrt                  0      0.00%     67.79% # Type of FU issued
system.cpu1.iq.FU_type_0::SimdFloatAdd              0      0.00%     67.79% # Type of FU issued
system.cpu1.iq.FU_type_0::SimdFloatAlu              0      0.00%     67.79% # Type of FU issued
system.cpu1.iq.FU_type_0::SimdFloatCmp              0      0.00%     67.79% # Type of FU issued
system.cpu1.iq.FU_type_0::SimdFloatCvt              0      0.00%     67.79% # Type of FU issued
system.cpu1.iq.FU_type_0::SimdFloatDiv              0      0.00%     67.79% # Type of FU issued
system.cpu1.iq.FU_type_0::SimdFloatMisc             0      0.00%     67.79% # Type of FU issued
system.cpu1.iq.FU_type_0::SimdFloatMult             0      0.00%     67.79% # Type of FU issued
system.cpu1.iq.FU_type_0::SimdFloatMultAcc            0      0.00%     67.79% # Type of FU issued
system.cpu1.iq.FU_type_0::SimdFloatSqrt             0      0.00%     67.79% # Type of FU issued
system.cpu1.iq.FU_type_0::SimdReduceAdd             0      0.00%     67.79% # Type of FU issued
system.cpu1.iq.FU_type_0::SimdReduceAlu             0      0.00%     67.79% # Type of FU issued
system.cpu1.iq.FU_type_0::SimdReduceCmp             0      0.00%     67.79% # Type of FU issued
system.cpu1.iq.FU_type_0::SimdFloatReduceAdd            0      0.00%     67.79% # Type of FU issued
system.cpu1.iq.FU_type_0::SimdFloatReduceCmp            0      0.00%     67.79% # Type of FU issued
system.cpu1.iq.FU_type_0::SimdAes                   0      0.00%     67.79% # Type of FU issued
system.cpu1.iq.FU_type_0::SimdAesMix                0      0.00%     67.79% # Type of FU issued
system.cpu1.iq.FU_type_0::SimdSha1Hash              0      0.00%     67.79% # Type of FU issued
system.cpu1.iq.FU_type_0::SimdSha1Hash2             0      0.00%     67.79% # Type of FU issued
system.cpu1.iq.FU_type_0::SimdSha256Hash            0      0.00%     67.79% # Type of FU issued
system.cpu1.iq.FU_type_0::SimdSha256Hash2            0      0.00%     67.79% # Type of FU issued
system.cpu1.iq.FU_type_0::SimdShaSigma2             0      0.00%     67.79% # Type of FU issued
system.cpu1.iq.FU_type_0::SimdShaSigma3             0      0.00%     67.79% # Type of FU issued
system.cpu1.iq.FU_type_0::SimdPredAlu               0      0.00%     67.79% # Type of FU issued
system.cpu1.iq.FU_type_0::MemRead            20717612     25.34%     93.13% # Type of FU issued
system.cpu1.iq.FU_type_0::MemWrite            5615386      6.87%    100.00% # Type of FU issued
system.cpu1.iq.FU_type_0::FloatMemRead              0      0.00%    100.00% # Type of FU issued
system.cpu1.iq.FU_type_0::FloatMemWrite            12      0.00%    100.00% # Type of FU issued
system.cpu1.iq.FU_type_0::IprAccess                 0      0.00%    100.00% # Type of FU issued
system.cpu1.iq.FU_type_0::InstPrefetch              0      0.00%    100.00% # Type of FU issued
system.cpu1.iq.FU_type_0::total              81763432                       # Type of FU issued
system.cpu1.iq.fp_alu_accesses                     14                       # Number of floating point alu accesses
system.cpu1.iq.fp_inst_queue_reads                 26                       # Number of floating instruction queue reads
system.cpu1.iq.fp_inst_queue_wakeup_accesses           12                       # Number of floating instruction queue wakeup accesses
system.cpu1.iq.fp_inst_queue_writes                12                       # Number of floating instruction queue writes
system.cpu1.iq.fu_busy_cnt                    1543942                       # FU busy when requested
system.cpu1.iq.fu_busy_rate                  0.018883                       # FU busy rate (busy events/executed inst)
system.cpu1.iq.fu_full::No_OpClass                  0      0.00%      0.00% # attempts to use FU when none available
system.cpu1.iq.fu_full::IntAlu                 349139     22.61%     22.61% # attempts to use FU when none available
system.cpu1.iq.fu_full::IntMult                     0      0.00%     22.61% # attempts to use FU when none available
system.cpu1.iq.fu_full::IntDiv                      0      0.00%     22.61% # attempts to use FU when none available
system.cpu1.iq.fu_full::FloatAdd                    0      0.00%     22.61% # attempts to use FU when none available
system.cpu1.iq.fu_full::FloatCmp                    0      0.00%     22.61% # attempts to use FU when none available
system.cpu1.iq.fu_full::FloatCvt                    0      0.00%     22.61% # attempts to use FU when none available
system.cpu1.iq.fu_full::FloatMult                   0      0.00%     22.61% # attempts to use FU when none available
system.cpu1.iq.fu_full::FloatMultAcc                0      0.00%     22.61% # attempts to use FU when none available
system.cpu1.iq.fu_full::FloatDiv                    0      0.00%     22.61% # attempts to use FU when none available
system.cpu1.iq.fu_full::FloatMisc                   0      0.00%     22.61% # attempts to use FU when none available
system.cpu1.iq.fu_full::FloatSqrt                   0      0.00%     22.61% # attempts to use FU when none available
system.cpu1.iq.fu_full::SimdAdd                     0      0.00%     22.61% # attempts to use FU when none available
system.cpu1.iq.fu_full::SimdAddAcc                  0      0.00%     22.61% # attempts to use FU when none available
system.cpu1.iq.fu_full::SimdAlu                     0      0.00%     22.61% # attempts to use FU when none available
system.cpu1.iq.fu_full::SimdCmp                     0      0.00%     22.61% # attempts to use FU when none available
system.cpu1.iq.fu_full::SimdCvt                     0      0.00%     22.61% # attempts to use FU when none available
system.cpu1.iq.fu_full::SimdMisc                    0      0.00%     22.61% # attempts to use FU when none available
system.cpu1.iq.fu_full::SimdMult                    0      0.00%     22.61% # attempts to use FU when none available
system.cpu1.iq.fu_full::SimdMultAcc                 0      0.00%     22.61% # attempts to use FU when none available
system.cpu1.iq.fu_full::SimdShift                   0      0.00%     22.61% # attempts to use FU when none available
system.cpu1.iq.fu_full::SimdShiftAcc                0      0.00%     22.61% # attempts to use FU when none available
system.cpu1.iq.fu_full::SimdDiv                     0      0.00%     22.61% # attempts to use FU when none available
system.cpu1.iq.fu_full::SimdSqrt                    0      0.00%     22.61% # attempts to use FU when none available
system.cpu1.iq.fu_full::SimdFloatAdd                0      0.00%     22.61% # attempts to use FU when none available
system.cpu1.iq.fu_full::SimdFloatAlu                0      0.00%     22.61% # attempts to use FU when none available
system.cpu1.iq.fu_full::SimdFloatCmp                0      0.00%     22.61% # attempts to use FU when none available
system.cpu1.iq.fu_full::SimdFloatCvt                0      0.00%     22.61% # attempts to use FU when none available
system.cpu1.iq.fu_full::SimdFloatDiv                0      0.00%     22.61% # attempts to use FU when none available
system.cpu1.iq.fu_full::SimdFloatMisc               0      0.00%     22.61% # attempts to use FU when none available
system.cpu1.iq.fu_full::SimdFloatMult               0      0.00%     22.61% # attempts to use FU when none available
system.cpu1.iq.fu_full::SimdFloatMultAcc            0      0.00%     22.61% # attempts to use FU when none available
system.cpu1.iq.fu_full::SimdFloatSqrt               0      0.00%     22.61% # attempts to use FU when none available
system.cpu1.iq.fu_full::SimdReduceAdd               0      0.00%     22.61% # attempts to use FU when none available
system.cpu1.iq.fu_full::SimdReduceAlu               0      0.00%     22.61% # attempts to use FU when none available
system.cpu1.iq.fu_full::SimdReduceCmp               0      0.00%     22.61% # attempts to use FU when none available
system.cpu1.iq.fu_full::SimdFloatReduceAdd            0      0.00%     22.61% # attempts to use FU when none available
system.cpu1.iq.fu_full::SimdFloatReduceCmp            0      0.00%     22.61% # attempts to use FU when none available
system.cpu1.iq.fu_full::SimdAes                     0      0.00%     22.61% # attempts to use FU when none available
system.cpu1.iq.fu_full::SimdAesMix                  0      0.00%     22.61% # attempts to use FU when none available
system.cpu1.iq.fu_full::SimdSha1Hash                0      0.00%     22.61% # attempts to use FU when none available
system.cpu1.iq.fu_full::SimdSha1Hash2               0      0.00%     22.61% # attempts to use FU when none available
system.cpu1.iq.fu_full::SimdSha256Hash              0      0.00%     22.61% # attempts to use FU when none available
system.cpu1.iq.fu_full::SimdSha256Hash2             0      0.00%     22.61% # attempts to use FU when none available
system.cpu1.iq.fu_full::SimdShaSigma2               0      0.00%     22.61% # attempts to use FU when none available
system.cpu1.iq.fu_full::SimdShaSigma3               0      0.00%     22.61% # attempts to use FU when none available
system.cpu1.iq.fu_full::SimdPredAlu                 0      0.00%     22.61% # attempts to use FU when none available
system.cpu1.iq.fu_full::MemRead                951284     61.61%     84.23% # attempts to use FU when none available
system.cpu1.iq.fu_full::MemWrite               243517     15.77%    100.00% # attempts to use FU when none available
[...]
system.cpu1.dcache.WriteReq_avg_mshr_miss_latency::.cpu1.data 118066.447498                       # average WriteReq mshr miss latency
system.cpu1.dcache.WriteReq_avg_mshr_miss_latency::total 118066.447498                       # average WriteReq mshr miss latency
system.cpu1.dcache.LoadLockedReq_hits::.cpu1.data          354                       # number of LoadLockedReq hits
system.cpu1.dcache.LoadLockedReq_hits::total          354                       # number of LoadLockedReq hits
system.cpu1.dcache.LoadLockedReq_misses::.cpu1.data          201                       # number of LoadLockedReq misses
system.cpu1.dcache.LoadLockedReq_misses::total          201                       # number of LoadLockedReq misses
system.cpu1.dcache.LoadLockedReq_miss_latency::.cpu1.data      6623000                       # number of LoadLockedReq miss cycles
system.cpu1.dcache.LoadLockedReq_miss_latency::total      6623000                       # number of LoadLockedReq miss cycles
system.cpu1.dcache.LoadLockedReq_accesses::.cpu1.data          555                       # number of LoadLockedReq accesses(hits+misses)
system.cpu1.dcache.LoadLockedReq_accesses::total          555                       # number of LoadLockedReq accesses(hits+misses)
system.cpu1.dcache.LoadLockedReq_miss_rate::.cpu1.data     0.362162                       # miss rate for LoadLockedReq accesses
system.cpu1.dcache.LoadLockedReq_miss_rate::total     0.362162                       # miss rate for LoadLockedReq accesses
system.cpu1.dcache.LoadLockedReq_avg_miss_latency::.cpu1.data 32950.248756                       # average LoadLockedReq miss latency
system.cpu1.dcache.LoadLockedReq_avg_miss_latency::total 32950.248756                       # average LoadLockedReq miss latency
system.cpu1.dcache.LoadLockedReq_mshr_hits::.cpu1.data          106                       # number of LoadLockedReq MSHR hits
system.cpu1.dcache.LoadLockedReq_mshr_hits::total          106                       # number of LoadLockedReq MSHR hits
system.cpu1.dcache.LoadLockedReq_mshr_misses::.cpu1.data           95                       # number of LoadLockedReq MSHR misses
system.cpu1.dcache.LoadLockedReq_mshr_misses::total           95                       # number of LoadLockedReq MSHR misses
system.cpu1.dcache.LoadLockedReq_mshr_miss_latency::.cpu1.data      3550500                       # number of LoadLockedReq MSHR miss cycles
system.cpu1.dcache.LoadLockedReq_mshr_miss_latency::total      3550500                       # number of LoadLockedReq MSHR miss cycles
system.cpu1.dcache.LoadLockedReq_mshr_miss_rate::.cpu1.data     0.171171                       # mshr miss rate for LoadLockedReq accesses
system.cpu1.dcache.LoadLockedReq_mshr_miss_rate::total     0.171171                       # mshr miss rate for LoadLockedReq accesses
system.cpu1.dcache.LoadLockedReq_avg_mshr_miss_latency::.cpu1.data 37373.684211                       # average LoadLockedReq mshr miss latency
system.cpu1.dcache.LoadLockedReq_avg_mshr_miss_latency::total 37373.684211                       # average LoadLockedReq mshr miss latency
system.cpu1.dcache.StoreCondReq_hits::.cpu1.data          217                       # number of StoreCondReq hits
system.cpu1.dcache.StoreCondReq_hits::total          217                       # number of StoreCondReq hits
system.cpu1.dcache.StoreCondReq_misses::.cpu1.data          182                       # number of StoreCondReq misses
system.cpu1.dcache.StoreCondReq_misses::total          182                       # number of StoreCondReq misses
system.cpu1.dcache.StoreCondReq_miss_latency::.cpu1.data      1567000                       # number of StoreCondReq miss cycles
system.cpu1.dcache.StoreCondReq_miss_latency::total      1567000                       # number of StoreCondReq miss cycles
system.cpu1.dcache.StoreCondReq_accesses::.cpu1.data          399                       # number of StoreCondReq accesses(hits+misses)
system.cpu1.dcache.StoreCondReq_accesses::total          399                       # number of StoreCondReq accesses(hits+misses)
system.cpu1.dcache.StoreCondReq_miss_rate::.cpu1.data     0.456140                       # miss rate for StoreCondReq accesses
system.cpu1.dcache.StoreCondReq_miss_rate::total     0.456140                       # miss rate for StoreCondReq accesses
system.cpu1.dcache.StoreCondReq_avg_miss_latency::.cpu1.data  8609.890110                       # average StoreCondReq miss latency
system.cpu1.dcache.StoreCondReq_avg_miss_latency::total  8609.890110                       # average StoreCondReq miss latency
system.cpu1.dcache.StoreCondReq_mshr_misses::.cpu1.data          176                       # number of StoreCondReq MSHR misses
system.cpu1.dcache.StoreCondReq_mshr_misses::total          176                       # number of StoreCondReq MSHR misses
system.cpu1.dcache.StoreCondReq_mshr_miss_latency::.cpu1.data      1420000                       # number of StoreCondReq MSHR miss cycles
system.cpu1.dcache.StoreCondReq_mshr_miss_latency::total      1420000                       # number of StoreCondReq MSHR miss cycles
system.cpu1.dcache.StoreCondReq_mshr_miss_rate::.cpu1.data     0.441103                       # mshr miss rate for StoreCondReq accesses
system.cpu1.dcache.StoreCondReq_mshr_miss_rate::total     0.441103                       # mshr miss rate for StoreCondReq accesses
system.cpu1.dcache.StoreCondReq_avg_mshr_miss_latency::.cpu1.data  8068.181818                       # average StoreCondReq mshr miss latency
system.cpu1.dcache.StoreCondReq_avg_mshr_miss_latency::total  8068.181818                       # average StoreCondReq mshr miss latency
system.cpu1.dcache.StoreCondFailReq_miss_latency::.cpu1.data       452500                       # number of StoreCondFailReq miss cycles
system.cpu1.dcache.StoreCondFailReq_miss_latency::total       452500                       # number of StoreCondFailReq miss cycles
system.cpu1.dcache.StoreCondFailReq_avg_miss_latency::.cpu1.data          inf                       # average StoreCondFailReq miss latency
system.cpu1.dcache.StoreCondFailReq_avg_miss_latency::total          inf                       # average StoreCondFailReq miss latency
system.cpu1.dcache.StoreCondFailReq_mshr_miss_latency::.cpu1.data       423500                       # number of StoreCondFailReq MSHR miss cycles
system.cpu1.dcache.StoreCondFailReq_mshr_miss_latency::total       423500                       # number of StoreCondFailReq MSHR miss cycles
system.cpu1.dcache.StoreCondFailReq_avg_mshr_miss_latency::.cpu1.data          inf                       # average StoreCondFailReq mshr miss latency
system.cpu1.dcache.StoreCondFailReq_avg_mshr_miss_latency::total          inf                       # average StoreCondFailReq mshr miss latency
system.cpu1.dcache.SwapReq_hits::.cpu1.data       603668                       # number of SwapReq hits
system.cpu1.dcache.SwapReq_hits::total         603668                       # number of SwapReq hits
system.cpu1.dcache.SwapReq_misses::.cpu1.data       446534                       # number of SwapReq misses
system.cpu1.dcache.SwapReq_misses::total       446534                       # number of SwapReq misses
system.cpu1.dcache.SwapReq_miss_latency::.cpu1.data  53439843000                       # number of SwapReq miss cycles
system.cpu1.dcache.SwapReq_miss_latency::total  53439843000                       # number of SwapReq miss cycles
system.cpu1.dcache.SwapReq_accesses::.cpu1.data      1050202                       # number of SwapReq accesses(hits+misses)
system.cpu1.dcache.SwapReq_accesses::total      1050202                       # number of SwapReq accesses(hits+misses)
system.cpu1.dcache.SwapReq_miss_rate::.cpu1.data     0.425189                       # miss rate for SwapReq accesses
system.cpu1.dcache.SwapReq_miss_rate::total     0.425189                       # miss rate for SwapReq accesses
system.cpu1.dcache.SwapReq_avg_miss_latency::.cpu1.data 119676.985403                       # average SwapReq miss latency
system.cpu1.dcache.SwapReq_avg_miss_latency::total 119676.985403                       # average SwapReq miss latency
system.cpu1.dcache.SwapReq_mshr_misses::.cpu1.data       446534                       # number of SwapReq MSHR misses
system.cpu1.dcache.SwapReq_mshr_misses::total       446534                       # number of SwapReq MSHR misses
system.cpu1.dcache.SwapReq_mshr_miss_latency::.cpu1.data  52993309000                       # number of SwapReq MSHR miss cycles
system.cpu1.dcache.SwapReq_mshr_miss_latency::total  52993309000                       # number of SwapReq MSHR miss cycles
system.cpu1.dcache.SwapReq_mshr_miss_rate::.cpu1.data     0.425189                       # mshr miss rate for SwapReq accesses
system.cpu1.dcache.SwapReq_mshr_miss_rate::total     0.425189                       # mshr miss rate for SwapReq accesses
system.cpu1.dcache.SwapReq_avg_mshr_miss_latency::.cpu1.data 118676.985403                       # average SwapReq mshr miss latency
system.cpu1.dcache.SwapReq_avg_mshr_miss_latency::total 118676.985403                       # average SwapReq mshr miss latency
system.cpu1.dcache.tags.pwrStateResidencyTicks::UNDEFINED 1424756403000                       # Cumulative time (in ticks) in various power states
system.cpu1.dcache.tags.tagsinuse           28.784823                       # Cycle average of tags in use
system.cpu1.dcache.tags.total_refs           20816850                       # Total number of references to valid blocks.
system.cpu1.dcache.tags.sampled_refs          1545527                       # Sample count of references to valid blocks.
system.cpu1.dcache.tags.avg_refs            13.469095                       # Average number of references to valid blocks.
system.cpu1.dcache.tags.warmup_cycle        328911000                       # Cycle when the warmup percentage was hit.
system.cpu1.dcache.tags.occ_blocks::.cpu1.data    28.784823                       # Average occupied blocks per requestor
system.cpu1.dcache.tags.occ_percent::.cpu1.data     0.899526                       # Average percentage of cache occupancy
system.cpu1.dcache.tags.occ_percent::total     0.899526                       # Average percentage of cache occupancy
system.cpu1.dcache.tags.occ_task_id_blocks::1024           28                       # Occupied blocks per task id
system.cpu1.dcache.tags.age_task_id_blocks_1024::0            1                       # Occupied blocks per task id
system.cpu1.dcache.tags.age_task_id_blocks_1024::1           27                       # Occupied blocks per task id
system.cpu1.dcache.tags.occ_task_id_percent::1024     0.875000                       # Percentage of cache occupancy per task id
system.cpu1.dcache.tags.tag_accesses         50633799                       # Number of tag accesses
system.cpu1.dcache.tags.data_accesses        50633799                       # Number of data accesses
system.cpu_clk_domain.clock                       500                       # Clock period in ticks
system.tol2bus.pwrStateResidencyTicks::UNDEFINED 1424756403000                       # Cumulative time (in ticks) in various power states
system.tol2bus.trans_dist::ReadResp          63351320                       # Transaction distribution
system.tol2bus.trans_dist::ReadRespWithInvalidate            1                       # Transaction distribution
system.tol2bus.trans_dist::WritebackDirty     12134702                       # Transaction distribution
system.tol2bus.trans_dist::WritebackClean     61438911                       # Transaction distribution
system.tol2bus.trans_dist::CleanEvict        29407470                       # Transaction distribution
system.tol2bus.trans_dist::HardPFReq         20826557                       # Transaction distribution
system.tol2bus.trans_dist::HardPFResp               6                       # Transaction distribution
system.tol2bus.trans_dist::UpgradeReq            1092                       # Transaction distribution
system.tol2bus.trans_dist::SCUpgradeReq           635                       # Transaction distribution
system.tol2bus.trans_dist::UpgradeResp           1727                       # Transaction distribution
system.tol2bus.trans_dist::SCUpgradeFailReq          109                       # Transaction distribution
system.tol2bus.trans_dist::UpgradeFailResp          109                       # Transaction distribution
system.tol2bus.trans_dist::ReadExReq          6297106                       # Transaction distribution
system.tol2bus.trans_dist::ReadExResp         6297106                       # Transaction distribution
system.tol2bus.trans_dist::ReadCleanReq      34670826                       # Transaction distribution
system.tol2bus.trans_dist::ReadSharedReq     28680496                       # Transaction distribution
system.tol2bus.trans_dist::InvalidateReq         1207                       # Transaction distribution
system.tol2bus.trans_dist::InvalidateResp         1207                       # Transaction distribution
system.tol2bus.pkt_count_system.cpu0.icache.mem_side::system.l2.cpu_side    103795919                       # Packet count per connected master and slave (bytes)
system.tol2bus.pkt_count_system.cpu0.dcache.mem_side::system.l2.cpu_side     91903505                       # Packet count per connected master and slave (bytes)
system.tol2bus.pkt_count_system.cpu1.icache.mem_side::system.l2.cpu_side        85333                       # Packet count per connected master and slave (bytes)
system.tol2bus.pkt_count_system.cpu1.dcache.mem_side::system.l2.cpu_side      4633606                       # Packet count per connected master and slave (bytes)
system.tol2bus.pkt_count_system.cpu2.icache.mem_side::system.l2.cpu_side        81412                       # Packet count per connected master and slave (bytes)
system.tol2bus.pkt_count_system.cpu2.dcache.mem_side::system.l2.cpu_side      4391878                       # Packet count per connected master and slave (bytes)
system.tol2bus.pkt_count_system.cpu3.icache.mem_side::system.l2.cpu_side        49684                       # Packet count per connected master and slave (bytes)
system.tol2bus.pkt_count_system.cpu3.dcache.mem_side::system.l2.cpu_side      3997340                       # Packet count per connected master and slave (bytes)
system.tol2bus.pkt_count::total             208938677                       # Packet count per connected master and slave (bytes)
system.tol2bus.pkt_size_system.cpu0.icache.mem_side::system.l2.cpu_side   4428625152                       # Cumulative packet size per connected master and slave (bytes)
system.tol2bus.pkt_size_system.cpu0.dcache.mem_side::system.l2.cpu_side   3921096320                       # Cumulative packet size per connected master and slave (bytes)
system.tol2bus.pkt_size_system.cpu1.icache.mem_side::system.l2.cpu_side      3640192                       # Cumulative packet size per connected master and slave (bytes)
system.tol2bus.pkt_size_system.cpu1.dcache.mem_side::system.l2.cpu_side    197588736                       # Cumulative packet size per connected master and slave (bytes)
system.tol2bus.pkt_size_system.cpu2.icache.mem_side::system.l2.cpu_side      3472896                       # Cumulative packet size per connected master and slave (bytes)
system.tol2bus.pkt_size_system.cpu2.dcache.mem_side::system.l2.cpu_side    187282816                       # Cumulative packet size per connected master and slave (bytes)
system.tol2bus.pkt_size_system.cpu3.icache.mem_side::system.l2.cpu_side      2119168                       # Cumulative packet size per connected master and slave (bytes)
system.tol2bus.pkt_size_system.cpu3.dcache.mem_side::system.l2.cpu_side    170455616                       # Cumulative packet size per connected master and slave (bytes)
system.tol2bus.pkt_size::total             8914280896                       # Cumulative packet size per connected master and slave (bytes)
system.tol2bus.snoops                        54171916                       # Total snoops (count)
system.tol2bus.snoopTraffic                 251937408                       # Total snoop traffic (bytes)
system.tol2bus.snoop_fanout::samples        123822994                       # Request fanout histogram
system.tol2bus.snoop_fanout::mean            0.098146                       # Request fanout histogram
system.tol2bus.snoop_fanout::stdev           0.340684                       # Request fanout histogram
system.tol2bus.snoop_fanout::underflows             0      0.00%      0.00% # Request fanout histogram
system.tol2bus.snoop_fanout::0              112737568     91.05%     91.05% # Request fanout histogram
system.tol2bus.snoop_fanout::1               10558708      8.53%     99.57% # Request fanout histogram
system.tol2bus.snoop_fanout::2                  84172      0.07%     99.64% # Request fanout histogram
system.tol2bus.snoop_fanout::3                 344632      0.28%     99.92% # Request fanout histogram
system.tol2bus.snoop_fanout::4                  97846      0.08%    100.00% # Request fanout histogram
system.tol2bus.snoop_fanout::5                     68      0.00%    100.00% # Request fanout histogram
system.tol2bus.snoop_fanout::6                      0      0.00%    100.00% # Request fanout histogram
system.tol2bus.snoop_fanout::7                      0      0.00%    100.00% # Request fanout histogram
system.tol2bus.snoop_fanout::8                      0      0.00%    100.00% # Request fanout histogram
system.tol2bus.snoop_fanout::overflows              0      0.00%    100.00% # Request fanout histogram
system.tol2bus.snoop_fanout::min_value              0                       # Request fanout histogram
system.tol2bus.snoop_fanout::max_value              5                       # Request fanout histogram
system.tol2bus.snoop_fanout::total          123822994                       # Request fanout histogram
system.tol2bus.reqLayer0.occupancy       139307669635                       # Layer occupancy (ticks)
system.tol2bus.reqLayer0.utilization              9.8                       # Layer utilization (%)
system.tol2bus.respLayer5.occupancy        2199786530                       # Layer occupancy (ticks)
system.tol2bus.respLayer5.utilization             0.2                       # Layer utilization (%)
system.tol2bus.respLayer4.occupancy          40937008                       # Layer occupancy (ticks)
system.tol2bus.respLayer4.utilization             0.0                       # Layer utilization (%)
system.tol2bus.respLayer7.occupancy        2002187413                       # Layer occupancy (ticks)
system.tol2bus.respLayer7.utilization             0.1                       # Layer utilization (%)
system.tol2bus.respLayer6.occupancy          25027600                       # Layer occupancy (ticks)
system.tol2bus.respLayer6.utilization             0.0                       # Layer utilization (%)
system.tol2bus.respLayer1.occupancy       45965534341                       # Layer occupancy (ticks)
system.tol2bus.respLayer1.utilization             3.2                       # Layer utilization (%)
system.tol2bus.respLayer0.occupancy       51900236959                       # Layer occupancy (ticks)
system.tol2bus.respLayer0.utilization             3.6                       # Layer utilization (%)
system.tol2bus.respLayer3.occupancy        2320787458                       # Layer occupancy (ticks)
system.tol2bus.respLayer3.utilization             0.2                       # Layer utilization (%)
system.tol2bus.respLayer2.occupancy          42881019                       # Layer occupancy (ticks)
system.tol2bus.respLayer2.utilization             0.0                       # Layer utilization (%)
system.tol2bus.snoopLayer0.occupancy             9002                       # Layer occupancy (ticks)
system.tol2bus.snoopLayer0.utilization            0.0                       # Layer utilization (%)

---------- End Simulation Statistics   ----------
