
---------- Begin Simulation Statistics ----------
final_tick                               1348277582000                       # Number of ticks from beginning of simulation (restored from checkpoints and never reset)
host_inst_rate                                 109223                       # Simulator instruction rate (inst/s)
host_mem_usage                                 702312                       # Number of bytes of host memory used
host_op_rate                                   109542                       # Simulator op (including micro ops) rate (op/s)
host_seconds                                 13153.13                       # Real time elapsed on the host
host_tick_rate                              102506199                       # Simulator tick rate (ticks/s)
sim_freq                                 1000000000000                       # Frequency of simulated ticks
sim_insts                                  1436618356                       # Number of instructions simulated
sim_ops                                    1440822112                       # Number of ops (including micro ops) simulated
sim_seconds                                  1.348278                       # Number of seconds simulated
sim_ticks                                1348277582000                       # Number of ticks simulated
system.cpu0.branchPred.BTBCorrect                   0                       # Number of correct BTB predictions (this stat may not work properly.
system.cpu0.branchPred.BTBHitPct            87.005681                       # BTB Hit Percentage
system.cpu0.branchPred.BTBHits              185046930                       # Number of BTB hits
system.cpu0.branchPred.BTBLookups           212683733                       # Number of BTB lookups
system.cpu0.branchPred.RASInCorrect                 0                       # Number of incorrect RAS predictions.
system.cpu0.branchPred.condIncorrect         23970126                       # Number of conditional branches incorrect
system.cpu0.branchPred.condPredicted        278594693                       # Number of conditional branches predicted
system.cpu0.branchPred.indirectHits          25131114                       # Number of indirect target hits.
system.cpu0.branchPred.indirectLookups       26547799                       # Number of indirect predictor lookups.
system.cpu0.branchPred.indirectMisses         1416685                       # Number of indirect misses.
system.cpu0.branchPred.lookups              356330041                       # Number of BP lookups
system.cpu0.branchPred.usedRAS                      0                       # Number of times the RAS was used to get a target.
system.cpu0.branchPredindirectMispredicted      2190095                       # Number of mispredicted indirect branches.
system.cpu0.commit.amos                       2100273                       # Number of atomic instructions committed
system.cpu0.commit.branchMispredicts         14048059                       # The number of times a branch was mispredicted
system.cpu0.commit.branches                 329546222                       # Number of branches committed
system.cpu0.commit.bw_lim_events             44356017                       # number cycles where commit BW limit reached
system.cpu0.commit.commitNonSpecStalls        6309737                       # The number of times commit has been forced to stall to communicate backwards
system.cpu0.commit.commitSquashedInsts      123853451                       # The number of squashed insts skipped by commit
system.cpu0.commit.committedInsts          1316552643                       # Number of instructions committed
system.cpu0.commit.committedOps            1318656217                       # Number of ops (including micro ops) committed
system.cpu0.commit.committed_per_cycle::samples   2449899596                       # Number of insts commited each cycle
system.cpu0.commit.committed_per_cycle::mean     0.538249                       # Number of insts commited each cycle
system.cpu0.commit.committed_per_cycle::stdev     1.355096                       # Number of insts commited each cycle
system.cpu0.commit.committed_per_cycle::underflows            0      0.00%      0.00% # Number of insts commited each cycle
system.cpu0.commit.committed_per_cycle::0   1848292218     75.44%     75.44% # Number of insts commited each cycle
system.cpu0.commit.committed_per_cycle::1    340125932     13.88%     89.33% # Number of insts commited each cycle
system.cpu0.commit.committed_per_cycle::2     93672564      3.82%     93.15% # Number of insts commited each cycle
system.cpu0.commit.committed_per_cycle::3     83573791      3.41%     96.56% # Number of insts commited each cycle
system.cpu0.commit.committed_per_cycle::4     25144056      1.03%     97.59% # Number of insts commited each cycle
system.cpu0.commit.committed_per_cycle::5      6885303      0.28%     97.87% # Number of insts commited each cycle
system.cpu0.commit.committed_per_cycle::6      4335096      0.18%     98.05% # Number of insts commited each cycle
system.cpu0.commit.committed_per_cycle::7      3514619      0.14%     98.19% # Number of insts commited each cycle
system.cpu0.commit.committed_per_cycle::8     44356017      1.81%    100.00% # Number of insts commited each cycle
system.cpu0.commit.committed_per_cycle::overflows            0      0.00%    100.00% # Number of insts commited each cycle
system.cpu0.commit.committed_per_cycle::min_value            0                       # Number of insts commited each cycle
system.cpu0.commit.committed_per_cycle::max_value            8                       # Number of insts commited each cycle
system.cpu0.commit.committed_per_cycle::total   2449899596                       # Number of insts commited each cycle
system.cpu0.commit.fp_insts                        50                       # Number of committed floating point instructions.
system.cpu0.commit.function_calls            25143435                       # Number of function calls committed.
system.cpu0.commit.int_insts               1273924331                       # Number of committed integer instructions.
system.cpu0.commit.loads                    405171554                       # Number of loads committed
system.cpu0.commit.membars                    4203727                       # Number of memory barriers committed
system.cpu0.commit.op_class_0::No_OpClass      4203733      0.32%      0.32% # Class of committed instruction
system.cpu0.commit.op_class_0::IntAlu       742064579     56.27%     56.59% # Class of committed instruction
system.cpu0.commit.op_class_0::IntMult       11831782      0.90%     57.49% # Class of committed instruction
system.cpu0.commit.op_class_0::IntDiv         2099835      0.16%     57.65% # Class of committed instruction
system.cpu0.commit.op_class_0::FloatAdd             0      0.00%     57.65% # Class of committed instruction
system.cpu0.commit.op_class_0::FloatCmp             4      0.00%     57.65% # Class of committed instruction
system.cpu0.commit.op_class_0::FloatCvt            12      0.00%     57.65% # Class of committed instruction
system.cpu0.commit.op_class_0::FloatMult            0      0.00%     57.65% # Class of committed instruction
system.cpu0.commit.op_class_0::FloatMultAcc            0      0.00%     57.65% # Class of committed instruction
system.cpu0.commit.op_class_0::FloatDiv             2      0.00%     57.65% # Class of committed instruction
system.cpu0.commit.op_class_0::FloatMisc            4      0.00%     57.65% # Class of committed instruction
system.cpu0.commit.op_class_0::FloatSqrt            0      0.00%     57.65% # Class of committed instruction
system.cpu0.commit.op_class_0::SimdAdd              0      0.00%     57.65% # Class of committed instruction
system.cpu0.commit.op_class_0::SimdAddAcc            0      0.00%     57.65% # Class of committed instruction
system.cpu0.commit.op_class_0::SimdAlu              0      0.00%     57.65% # Class of committed instruction
system.cpu0.commit.op_class_0::SimdCmp              0      0.00%     57.65% # Class of committed instruction
system.cpu0.commit.op_class_0::SimdCvt              0      0.00%     57.65% # Class of committed instruction
system.cpu0.commit.op_class_0::SimdMisc             0      0.00%     57.65% # Class of committed instruction
system.cpu0.commit.op_class_0::SimdMult             0      0.00%     57.65% # Class of committed instruction
system.cpu0.commit.op_class_0::SimdMultAcc            0      0.00%     57.65% # Class of committed instruction
system.cpu0.commit.op_class_0::SimdShift            0      0.00%     57.65% # Class of committed instruction
system.cpu0.commit.op_class_0::SimdShiftAcc            0      0.00%     57.65% # Class of committed instruction
system.cpu0.commit.op_class_0::SimdDiv              0      0.00%     57.65% # Class of committed instruction
system.cpu0.commit.op_class_0::SimdSqrt             0      0.00%     57.65% # Class of committed instruction
system.cpu0.commit.op_class_0::SimdFloatAdd            0      0.00%     57.65% # Class of committed instruction
system.cpu0.commit.op_class_0::SimdFloatAlu            0      0.00%     57.65% # Class of committed instruction
system.cpu0.commit.op_class_0::SimdFloatCmp            0      0.00%     57.65% # Class of committed instruction
system.cpu0.commit.op_class_0::SimdFloatCvt            0      0.00%     57.65% # Class of committed instruction
system.cpu0.commit.op_class_0::SimdFloatDiv            0      0.00%     57.65% # Class of committed instruction
system.cpu0.commit.op_class_0::SimdFloatMisc            0      0.00%     57.65% # Class of committed instruction
system.cpu0.commit.op_class_0::SimdFloatMult            0      0.00%     57.65% # Class of committed instruction
system.cpu0.commit.op_class_0::SimdFloatMultAcc            0      0.00%     57.65% # Class of committed instruction
system.cpu0.commit.op_class_0::SimdFloatSqrt            0      0.00%     57.65% # Class of committed instruction
system.cpu0.commit.op_class_0::SimdReduceAdd            0      0.00%     57.65% # Class of committed instruction
system.cpu0.commit.op_class_0::SimdReduceAlu            0      0.00%     57.65% # Class of committed instruction
system.cpu0.commit.op_class_0::SimdReduceCmp            0      0.00%     57.65% # Class of committed instruction
system.cpu0.commit.op_class_0::SimdFloatReduceAdd            0      0.00%     57.65% # Class of committed instruction
system.cpu0.commit.op_class_0::SimdFloatReduceCmp            0      0.00%     57.65% # Class of committed instruction
system.cpu0.commit.op_class_0::SimdAes              0      0.00%     57.65% # Class of committed instruction
system.cpu0.commit.op_class_0::SimdAesMix            0      0.00%     57.65% # Class of committed instruction
system.cpu0.commit.op_class_0::SimdSha1Hash            0      0.00%     57.65% # Class of committed instruction
system.cpu0.commit.op_class_0::SimdSha1Hash2            0      0.00%     57.65% # Class of committed instruction
system.cpu0.commit.op_class_0::SimdSha256Hash            0      0.00%     57.65% # Class of committed instruction
system.cpu0.commit.op_class_0::SimdSha256Hash2            0      0.00%     57.65% # Class of committed instruction
system.cpu0.commit.op_class_0::SimdShaSigma2            0      0.00%     57.65% # Class of committed instruction
system.cpu0.commit.op_class_0::SimdShaSigma3            0      0.00%     57.65% # Class of committed instruction
system.cpu0.commit.op_class_0::SimdPredAlu            0      0.00%     57.65% # Class of committed instruction
system.cpu0.commit.op_class_0::MemRead      407271819     30.89%     88.53% # Class of committed instruction
system.cpu0.commit.op_class_0::MemWrite     151184419     11.47%    100.00% # Class of committed instruction
system.cpu0.commit.op_class_0::FloatMemRead            8      0.00%    100.00% # Class of committed instruction
system.cpu0.commit.op_class_0::FloatMemWrite           20      0.00%    100.00% # Class of committed instruction
system.cpu0.commit.op_class_0::IprAccess            0      0.00%    100.00% # Class of committed instruction
system.cpu0.commit.op_class_0::InstPrefetch            0      0.00%    100.00% # Class of committed instruction
system.cpu0.commit.op_class_0::total       1318656217                       # Class of committed instruction
system.cpu0.commit.refs                     558456266                       # Number of memory references committed
system.cpu0.commit.swp_count                        0                       # Number of s/w prefetches committed
system.cpu0.commit.vec_insts                        0                       # Number of committed Vector instructions.
system.cpu0.committedInsts                 1316552643                       # Number of Instructions Simulated
system.cpu0.committedOps                   1318656217                       # Number of Ops (including micro ops) Simulated
system.cpu0.cpi                              2.042681                       # CPI: Cycles Per Instruction
system.cpu0.cpi_total                        2.042681                       # CPI: Total CPI of All Threads
system.cpu0.decode.BlockedCycles            482112124                       # Number of cycles decode is blocked
system.cpu0.decode.BranchMispred              9979139                       # Number of times decode detected a branch misprediction
system.cpu0.decode.BranchResolved           182950998                       # Number of times decode resolved a branch
system.cpu0.decode.DecodedInsts            1470615265                       # Number of instructions handled by decode
system.cpu0.decode.IdleCycles               961260228                       # Number of cycles decode is idle
system.cpu0.decode.RunCycles               1010853364                       # Number of cycles decode is running
system.cpu0.decode.SquashCycles              14062977                       # Number of cycles decode is squashing
system.cpu0.decode.SquashedInsts             18311751                       # Number of squashed instructions handled by decode
system.cpu0.decode.UnblockCycles              7826388                       # Number of cycles decode is unblocking
system.cpu0.dtb.accesses                            0                       # DTB accesses
system.cpu0.dtb.hits                                0                       # DTB hits
system.cpu0.dtb.misses                              0                       # DTB misses
system.cpu0.dtb.read_accesses                       0                       # DTB read accesses
system.cpu0.dtb.read_hits                           0                       # DTB read hits
system.cpu0.dtb.read_misses                         0                       # DTB read misses
system.cpu0.dtb.write_accesses                      0                       # DTB write accesses
system.cpu0.dtb.write_hits                          0                       # DTB write hits
system.cpu0.dtb.write_misses                        0                       # DTB write misses
system.cpu0.fetch.Branches                  356330041                       # Number of branches that fetch encountered
system.cpu0.fetch.CacheLines                272519165                       # Number of cache lines fetched
system.cpu0.fetch.Cycles                   1515866097                       # Number of cycles fetch has run and was not squashing or blocked
system.cpu0.fetch.IcacheSquashes              7167027                       # Number of outstanding Icache misses that were squashed
system.cpu0.fetch.IcacheWaitRetryStallCycles          108                       # Number of stall cycles due to full MSHR
system.cpu0.fetch.Insts                    1505679210                       # Number of instructions fetch has processed
system.cpu0.fetch.MiscStallCycles                  20                       # Number of cycles fetch has spent waiting on interrupts, or bad addresses, or out of MSHRs
system.cpu0.fetch.PendingTrapStallCycles           46                       # Number of stall cycles due to pending traps
system.cpu0.fetch.SquashCycles               47970102                       # Number of cycles fetch has spent squashing
system.cpu0.fetch.branchRate                 0.132499                       # Number of branch fetches per cycle
system.cpu0.fetch.icacheStallCycles         936263759                       # Number of cycles fetch is stalled on an Icache miss
system.cpu0.fetch.predictedBranches         210178044                       # Number of branches that fetch has predicted taken
system.cpu0.fetch.rate                       0.559878                       # Number of inst fetches per cycle
system.cpu0.fetch.rateDist::samples        2476115081                       # Number of instructions fetched each cycle (Total)
system.cpu0.fetch.rateDist::mean             0.608931                       # Number of instructions fetched each cycle (Total)
system.cpu0.fetch.rateDist::stdev            0.886215                       # Number of instructions fetched each cycle (Total)
system.cpu0.fetch.rateDist::underflows              0      0.00%      0.00% # Number of instructions fetched each cycle (Total)
system.cpu0.fetch.rateDist::0              1407972427     56.86%     56.86% # Number of instructions fetched each cycle (Total)
system.cpu0.fetch.rateDist::1               799275654     32.28%     89.14% # Number of instructions fetched each cycle (Total)
system.cpu0.fetch.rateDist::2               136393972      5.51%     94.65% # Number of instructions fetched each cycle (Total)
system.cpu0.fetch.rateDist::3               110239357      4.45%     99.10% # Number of instructions fetched each cycle (Total)
system.cpu0.fetch.rateDist::4                14687861      0.59%     99.70% # Number of instructions fetched each cycle (Total)
system.cpu0.fetch.rateDist::5                 3235306      0.13%     99.83% # Number of instructions fetched each cycle (Total)
system.cpu0.fetch.rateDist::6                  103740      0.00%     99.83% # Number of instructions fetched each cycle (Total)
system.cpu0.fetch.rateDist::7                 4202804      0.17%    100.00% # Number of instructions fetched each cycle (Total)
system.cpu0.fetch.rateDist::8                    3960      0.00%    100.00% # Number of instructions fetched each cycle (Total)
system.cpu0.fetch.rateDist::overflows               0      0.00%    100.00% # Number of instructions fetched each cycle (Total)
system.cpu0.fetch.rateDist::min_value               0                       # Number of instructions fetched each cycle (Total)
system.cpu0.fetch.rateDist::max_value               8                       # Number of instructions fetched each cycle (Total)
system.cpu0.fetch.rateDist::total          2476115081                       # Number of instructions fetched each cycle (Total)
system.cpu0.fp_regfile_reads                       44                       # number of floating regfile reads
system.cpu0.fp_regfile_writes                      23                       # number of floating regfile writes
system.cpu0.idleCycles                      213182043                       # Total number of cycles that the CPU has spent unscheduled due to idling
system.cpu0.iew.branchMispredicts            14170102                       # Number of branch mispredicts detected at execute
system.cpu0.iew.exec_branches               342605304                       # Number of branches executed
system.cpu0.iew.exec_nop                            0                       # number of nop insts executed
system.cpu0.iew.exec_rate                    0.529309                       # Inst execution rate
system.cpu0.iew.exec_refs                   619853205                       # number of memory reference insts executed
system.cpu0.iew.exec_stores                 176396817                       # Number of stores executed
system.cpu0.iew.exec_swp                            0                       # number of swp insts executed
system.cpu0.iew.iewBlockCycles              370029015                       # Number of cycles IEW is blocking
system.cpu0.iew.iewDispLoadInsts            444543872                       # Number of dispatched load instructions
system.cpu0.iew.iewDispNonSpecInsts           2106234                       # Number of dispatched non-speculative instructions
system.cpu0.iew.iewDispSquashedInsts          5430448                       # Number of squashed instructions skipped by dispatch
system.cpu0.iew.iewDispStoreInsts           181826782                       # Number of dispatched store instructions
system.cpu0.iew.iewDispatchedInsts         1442454051                       # Number of instructions dispatched to IQ
system.cpu0.iew.iewExecLoadInsts            443456388                       # Number of load instructions executed
system.cpu0.iew.iewExecSquashedInsts          9484363                       # Number of squashed instructions skipped in execute
system.cpu0.iew.iewExecutedInsts           1423468562                       # Number of executed instructions
system.cpu0.iew.iewIQFullEvents               1935167                       # Number of times the IQ has become full, causing a stall
system.cpu0.iew.iewIdleCycles                       0                       # Number of cycles IEW is idle
system.cpu0.iew.iewLSQFullEvents             23389091                       # Number of times the LSQ has become full, causing a stall
system.cpu0.iew.iewSquashCycles              14062977                       # Number of cycles IEW is squashing
system.cpu0.iew.iewUnblockCycles             27664630                       # Number of cycles IEW is unblocking
system.cpu0.iew.lsq.thread0.blockedLoads            0                       # Number of blocked loads due to partial load-store forwarding
system.cpu0.iew.lsq.thread0.cacheBlocked       265913                       # Number of times an access to memory failed due to the cache being blocked
system.cpu0.iew.lsq.thread0.forwLoads        28040829                       # Number of loads that had data forwarded from stores
system.cpu0.iew.lsq.thread0.ignoredResponses        31343                       # Number of memory responses ignored because the instruction is squashed
system.cpu0.iew.lsq.thread0.invAddrLoads            0                       # Number of loads ignored due to an invalid address
system.cpu0.iew.lsq.thread0.invAddrSwpfs            0                       # Number of software prefetches ignored due to an invalid address
system.cpu0.iew.lsq.thread0.memOrderViolation        14318                       # Number of memory ordering violations
system.cpu0.iew.lsq.thread0.rescheduledLoads      6149148                       # Number of loads that were rescheduled
system.cpu0.iew.lsq.thread0.squashedLoads     39372318                       # Number of loads squashed
system.cpu0.iew.lsq.thread0.squashedStores     28542070                       # Number of stores squashed
system.cpu0.iew.memOrderViolationEvents         14318                       # Number of memory order violations
system.cpu0.iew.predictedNotTakenIncorrect       757677                       # Number of branches that were predicted not taken incorrectly
system.cpu0.iew.predictedTakenIncorrect      13412425                       # Number of branches that were predicted taken incorrectly
system.cpu0.iew.wb_consumers                613272040                       # num instructions consuming a value
system.cpu0.iew.wb_count                   1411952954                       # cumulative count of insts written-back
system.cpu0.iew.wb_fanout                    0.882927                       # average fanout of values written-back
system.cpu0.iew.wb_producers                541474146                       # num instructions producing a value
system.cpu0.iew.wb_rate                      0.525027                       # insts written-back per cycle
system.cpu0.iew.wb_sent                    1412048028                       # cumulative count of insts sent to commit
system.cpu0.int_regfile_reads              1751377292                       # number of integer regfile reads
system.cpu0.int_regfile_writes              904872157                       # number of integer regfile writes
system.cpu0.ipc                              0.489553                       # IPC: Instructions Per Cycle
system.cpu0.ipc_total                        0.489553                       # IPC: Total IPC of All Threads
system.cpu0.iq.FU_type_0::No_OpClass          4205619      0.29%      0.29% # Type of FU issued
system.cpu0.iq.FU_type_0::IntAlu            790825561     55.19%     55.48% # Type of FU issued
system.cpu0.iq.FU_type_0::IntMult            11834397      0.83%     56.31% # Type of FU issued
system.cpu0.iq.FU_type_0::IntDiv              2100513      0.15%     56.45% # Type of FU issued
system.cpu0.iq.FU_type_0::FloatAdd                  0      0.00%     56.45% # Type of FU issued
system.cpu0.iq.FU_type_0::FloatCmp                  4      0.00%     56.45% # Type of FU issued
system.cpu0.iq.FU_type_0::FloatCvt                 12      0.00%     56.45% # Type of FU issued
system.cpu0.iq.FU_type_0::FloatMult                 0      0.00%     56.45% # Type of FU issued
system.cpu0.iq.FU_type_0::FloatMultAcc              0      0.00%     56.45% # Type of FU issued
system.cpu0.iq.FU_type_0::FloatDiv                  2      0.00%     56.45% # Type of FU issued
system.cpu0.iq.FU_type_0::FloatMisc                 4      0.00%     56.45% # Type of FU issued
system.cpu0.iq.FU_type_0::FloatSqrt                 0      0.00%     56.45% # Type of FU issued
system.cpu0.iq.FU_type_0::SimdAdd                   0      0.00%     56.45% # Type of FU issued
system.cpu0.iq.FU_type_0::SimdAddAcc                0      0.00%     56.45% # Type of FU issued
system.cpu0.iq.FU_type_0::SimdAlu                   0      0.00%     56.45% # Type of FU issued
system.cpu0.iq.FU_type_0::SimdCmp                   0      0.00%     56.45% # Type of FU issued
system.cpu0.iq.FU_type_0::SimdCvt                   0      0.00%     56.45% # Type of FU issued
system.cpu0.iq.FU_type_0::SimdMisc                  0      0.00%     56.45% # Type of FU issued
system.cpu0.iq.FU_type_0::SimdMult                  0      0.00%     56.45% # Type of FU issued
system.cpu0.iq.FU_type_0::SimdMultAcc               0      0.00%     56.45% # Type of FU issued
system.cpu0.iq.FU_type_0::SimdShift                 0      0.00%     56.45% # Type of FU issued
system.cpu0.iq.FU_type_0::SimdShiftAcc              0      0.00%     56.45% # Type of FU issued
system.cpu0.iq.FU_type_0::SimdDiv                   0      0.00%     56.45% # Type of FU issued
system.cpu0.iq.FU_type_0::SimdSqrt                  0      0.00%     56.45% # Type of FU issued
system.cpu0.iq.FU_type_0::SimdFloatAdd              0      0.00%     56.45% # Type of FU issued
system.cpu0.iq.FU_type_0::SimdFloatAlu              0      0.00%     56.45% # Type of FU issued
system.cpu0.iq.FU_type_0::SimdFloatCmp              0      0.00%     56.45% # Type of FU issued
system.cpu0.iq.FU_type_0::SimdFloatCvt              0      0.00%     56.45% # Type of FU issued
system.cpu0.iq.FU_type_0::SimdFloatDiv              0      0.00%     56.45% # Type of FU issued
system.cpu0.iq.FU_type_0::SimdFloatMisc             0      0.00%     56.45% # Type of FU issued
system.cpu0.iq.FU_type_0::SimdFloatMult             0      0.00%     56.45% # Type of FU issued
system.cpu0.iq.FU_type_0::SimdFloatMultAcc            0      0.00%     56.45% # Type of FU issued
system.cpu0.iq.FU_type_0::SimdFloatSqrt             0      0.00%     56.45% # Type of FU issued
system.cpu0.iq.FU_type_0::SimdReduceAdd             0      0.00%     56.45% # Type of FU issued
system.cpu0.iq.FU_type_0::SimdReduceAlu             0      0.00%     56.45% # Type of FU issued
system.cpu0.iq.FU_type_0::SimdReduceCmp             0      0.00%     56.45% # Type of FU issued
system.cpu0.iq.FU_type_0::SimdFloatReduceAdd            0      0.00%     56.45% # Type of FU issued
system.cpu0.iq.FU_type_0::SimdFloatReduceCmp            0      0.00%     56.45% # Type of FU issued
system.cpu0.iq.FU_type_0::SimdAes                   0      0.00%     56.45% # Type of FU issued
system.cpu0.iq.FU_type_0::SimdAesMix                0      0.00%     56.45% # Type of FU issued
system.cpu0.iq.FU_type_0::SimdSha1Hash              0      0.00%     56.45% # Type of FU issued
system.cpu0.iq.FU_type_0::SimdSha1Hash2             0      0.00%     56.45% # Type of FU issued
system.cpu0.iq.FU_type_0::SimdSha256Hash            0      0.00%     56.45% # Type of FU issued
system.cpu0.iq.FU_type_0::SimdSha256Hash2            0      0.00%     56.45% # Type of FU issued
system.cpu0.iq.FU_type_0::SimdShaSigma2             0      0.00%     56.45% # Type of FU issued
system.cpu0.iq.FU_type_0::SimdShaSigma3             0      0.00%     56.45% # Type of FU issued
system.cpu0.iq.FU_type_0::SimdPredAlu               0      0.00%     56.45% # Type of FU issued
system.cpu0.iq.FU_type_0::MemRead           448542802     31.30%     87.76% # Type of FU issued
system.cpu0.iq.FU_type_0::MemWrite          175443982     12.24%    100.00% # Type of FU issued
system.cpu0.iq.FU_type_0::FloatMemRead             10      0.00%    100.00% # Type of FU issued
system.cpu0.iq.FU_type_0::FloatMemWrite            20      0.00%    100.00% # Type of FU issued
system.cpu0.iq.FU_type_0::IprAccess                 0      0.00%    100.00% # Type of FU issued
system.cpu0.iq.FU_type_0::InstPrefetch              0      0.00%    100.00% # Type of FU issued
system.cpu0.iq.FU_type_0::total            1432952926                       # Type of FU issued
system.cpu0.iq.fp_alu_accesses                     54                       # Number of floating point alu accesses
system.cpu0.iq.fp_inst_queue_reads                106                       # Number of floating instruction queue reads
system.cpu0.iq.fp_inst_queue_wakeup_accesses           51                       # Number of floating instruction queue wakeup accesses
system.cpu0.iq.fp_inst_queue_writes                54                       # Number of floating instruction queue writes
system.cpu0.iq.fu_busy_cnt                    4133854                       # FU busy when requested
system.cpu0.iq.fu_busy_rate                  0.002885                       # FU busy rate (busy events/executed inst)
system.cpu0.iq.fu_full::No_OpClass                  0      0.00%      0.00% # attempts to use FU when none available
system.cpu0.iq.fu_full::IntAlu                 559032     13.52%     13.52% # attempts to use FU when none available
system.cpu0.iq.fu_full::IntMult                     0      0.00%     13.52% # attempts to use FU when none available
system.cpu0.iq.fu_full::IntDiv                      0      0.00%     13.52% # attempts to use FU when none available
system.cpu0.iq.fu_full::FloatAdd                    0      0.00%     13.52% # attempts to use FU when none available
system.cpu0.iq.fu_full::FloatCmp                    0      0.00%     13.52% # attempts to use FU when none available
system.cpu0.iq.fu_full::FloatCvt                    0      0.00%     13.52% # attempts to use FU when none available
system.cpu0.iq.fu_full::FloatMult                   0      0.00%     13.52% # attempts to use FU when none available
system.cpu0.iq.fu_full::FloatMultAcc                0      0.00%     13.52% # attempts to use FU when none available
system.cpu0.iq.fu_full::FloatDiv                    0      0.00%     13.52% # attempts to use FU when none available
system.cpu0.iq.fu_full::FloatMisc                   0      0.00%     13.52% # attempts to use FU when none available
system.cpu0.iq.fu_full::FloatSqrt                   0      0.00%     13.52% # attempts to use FU when none available
system.cpu0.iq.fu_full::SimdAdd                     0      0.00%     13.52% # attempts to use FU when none available
system.cpu0.iq.fu_full::SimdAddAcc                  0      0.00%     13.52% # attempts to use FU when none available
system.cpu0.iq.fu_full::SimdAlu                     0      0.00%     13.52% # attempts to use FU when none available
system.cpu0.iq.fu_full::SimdCmp                     0      0.00%     13.52% # attempts to use FU when none available
system.cpu0.iq.fu_full::SimdCvt                     0      0.00%     13.52% # attempts to use FU when none available
system.cpu0.iq.fu_full::SimdMisc                    0      0.00%     13.52% # attempts to use FU when none available
system.cpu0.iq.fu_full::SimdMult                    0      0.00%     13.52% # attempts to use FU when none available
system.cpu0.iq.fu_full::SimdMultAcc                 0      0.00%     13.52% # attempts to use FU when none available
system.cpu0.iq.fu_full::SimdShift                   0      0.00%     13.52% # attempts to use FU when none available
system.cpu0.iq.fu_full::SimdShiftAcc                0      0.00%     13.52% # attempts to use FU when none available
system.cpu0.iq.fu_full::SimdDiv                     0      0.00%     13.52% # attempts to use FU when none available
system.cpu0.iq.fu_full::SimdSqrt                    0      0.00%     13.52% # attempts to use FU when none available
system.cpu0.iq.fu_full::SimdFloatAdd                0      0.00%     13.52% # attempts to use FU when none available
system.cpu0.iq.fu_full::SimdFloatAlu                0      0.00%     13.52% # attempts to use FU when none available
system.cpu0.iq.fu_full::SimdFloatCmp                0      0.00%     13.52% # attempts to use FU when none available
system.cpu0.iq.fu_full::SimdFloatCvt                0      0.00%     13.52% # attempts to use FU when none available
system.cpu0.iq.fu_full::SimdFloatDiv                0      0.00%     13.52% # attempts to use FU when none available
system.cpu0.iq.fu_full::SimdFloatMisc               0      0.00%     13.52% # attempts to use FU when none available
system.cpu0.iq.fu_full::SimdFloatMult               0      0.00%     13.52% # attempts to use FU when none available
system.cpu0.iq.fu_full::SimdFloatMultAcc            0      0.00%     13.52% # attempts to use FU when none available
system.cpu0.iq.fu_full::SimdFloatSqrt               0      0.00%     13.52% # attempts to use FU when none available
system.cpu0.iq.fu_full::SimdReduceAdd               0      0.00%     13.52% # attempts to use FU when none available
system.cpu0.iq.fu_full::SimdReduceAlu               0      0.00%     13.52% # attempts to use FU when none available
system.cpu0.iq.fu_full::SimdReduceCmp               0      0.00%     13.52% # attempts to use FU when none available
system.cpu0.iq.fu_full::SimdFloatReduceAdd            0      0.00%     13.52% # attempts to use FU when none available
system.cpu0.iq.fu_full::SimdFloatReduceCmp            0      0.00%     13.52% # attempts to use FU when none available
system.cpu0.iq.fu_full::SimdAes                     0      0.00%     13.52% # attempts to use FU when none available
system.cpu0.iq.fu_full::SimdAesMix                  0      0.00%     13.52% # attempts to use FU when none available
system.cpu0.iq.fu_full::SimdSha1Hash                0      0.00%     13.52% # attempts to use FU when none available
system.cpu0.iq.fu_full::SimdSha1Hash2               0      0.00%     13.52% # attempts to use FU when none available
system.cpu0.iq.fu_full::SimdSha256Hash              0      0.00%     13.52% # attempts to use FU when none available
system.cpu0.iq.fu_full::SimdSha256Hash2             0      0.00%     13.52% # attempts to use FU when none available
system.cpu0.iq.fu_full::SimdShaSigma2               0      0.00%     13.52% # attempts to use FU when none available
system.cpu0.iq.fu_full::SimdShaSigma3               0      0.00%     13.52% # attempts to use FU when none available
system.cpu0.iq.fu_full::SimdPredAlu                 0      0.00%     13.52% # attempts to use FU when none available
system.cpu0.iq.fu_full::MemRead               2621998     63.43%     76.95% # attempts to use FU when none available
system.cpu0.iq.fu_full::MemWrite               952822     23.05%    100.00% # attempts to use FU when none available
system.cpu0.iq.fu_full::FloatMemRead                0      0.00%    100.00% # attempts to use FU when none available
system.cpu0.iq.fu_full::FloatMemWrite               2      0.00%    100.00% # attempts to use FU when none available
system.cpu0.iq.fu_full::IprAccess                   0      0.00%    100.00% # attempts to use FU when none available
system.cpu0.iq.fu_full::InstPrefetch                0      0.00%    100.00% # attempts to use FU when none available
system.cpu0.iq.int_alu_accesses            1432881107                       # Number of integer alu accesses
system.cpu0.iq.int_inst_queue_reads        5346380304                       # Number of integer instruction queue reads
system.cpu0.iq.int_inst_queue_wakeup_accesses   1411952903                       # Number of integer instruction queue wakeup accesses
system.cpu0.iq.int_inst_queue_writes       1566265529                       # Number of integer instruction queue writes
system.cpu0.iq.iqInstsAdded                1436143900                       # Number of instructions added to the IQ (excludes non-spec)
system.cpu0.iq.iqInstsIssued               1432952926                       # Number of instructions issued
system.cpu0.iq.iqNonSpecInstsAdded            6310151                       # Number of non-speculative instructions added to the IQ
system.cpu0.iq.iqSquashedInstsExamined      123797830                       # Number of squashed instructions iterated over during squash; mainly for profiling
system.cpu0.iq.iqSquashedInstsIssued           225624                       # Number of squashed instructions issued
system.cpu0.iq.iqSquashedNonSpecRemoved           414                       # Number of squashed non-spec instructions that were removed
system.cpu0.iq.iqSquashedOperandsExamined     34409477                       # Number of squashed operands that are examined and possibly removed from graph
system.cpu0.iq.issued_per_cycle::samples   2476115081                       # Number of insts issued each cycle
system.cpu0.iq.issued_per_cycle::mean        0.578710                       # Number of insts issued each cycle
system.cpu0.iq.issued_per_cycle::stdev       0.828648                       # Number of insts issued each cycle
system.cpu0.iq.issued_per_cycle::underflows            0      0.00%      0.00% # Number of insts issued each cycle
system.cpu0.iq.issued_per_cycle::0         1440674422     58.18%     58.18% # Number of insts issued each cycle
system.cpu0.iq.issued_per_cycle::1          736509800     29.74%     87.93% # Number of insts issued each cycle
system.cpu0.iq.issued_per_cycle::2          231518226      9.35%     97.28% # Number of insts issued each cycle
system.cpu0.iq.issued_per_cycle::3           48190829      1.95%     99.22% # Number of insts issued each cycle
system.cpu0.iq.issued_per_cycle::4           13508030      0.55%     99.77% # Number of insts issued each cycle
system.cpu0.iq.issued_per_cycle::5            1672596      0.07%     99.84% # Number of insts issued each cycle
system.cpu0.iq.issued_per_cycle::6            2492674      0.10%     99.94% # Number of insts issued each cycle
system.cpu0.iq.issued_per_cycle::7             904989      0.04%     99.97% # Number of insts issued each cycle
system.cpu0.iq.issued_per_cycle::8             643515      0.03%    100.00% # Number of insts issued each cycle
system.cpu0.iq.issued_per_cycle::overflows            0      0.00%    100.00% # Number of insts issued each cycle
system.cpu0.iq.issued_per_cycle::min_value            0                       # Number of insts issued each cycle
system.cpu0.iq.issued_per_cycle::max_value            8                       # Number of insts issued each cycle
system.cpu0.iq.issued_per_cycle::total     2476115081                       # Number of insts issued each cycle
system.cpu0.iq.rate                          0.532835                       # Inst issue rate
system.cpu0.iq.vec_alu_accesses                     0                       # Number of vector alu accesses
system.cpu0.iq.vec_inst_queue_reads                 0                       # Number of vector instruction queue reads
system.cpu0.iq.vec_inst_queue_wakeup_accesses            0                       # Number of vector instruction queue wakeup accesses
system.cpu0.iq.vec_inst_queue_writes                0                       # Number of vector instruction queue writes
system.cpu0.itb.accesses                            0                       # DTB accesses
system.cpu0.itb.hits                                0                       # DTB hits
system.cpu0.itb.misses                              0                       # DTB misses
system.cpu0.itb.read_accesses                       0                       # DTB read accesses
system.cpu0.itb.read_hits                           0                       # DTB read hits
system.cpu0.itb.read_misses                         0                       # DTB read misses
system.cpu0.itb.write_accesses                      0                       # DTB write accesses
system.cpu0.itb.write_hits                          0                       # DTB write hits
system.cpu0.itb.write_misses                        0                       # DTB write misses
system.cpu0.memDep0.conflictingLoads         21362654                       # Number of conflicting loads.
system.cpu0.memDep0.conflictingStores         4220562                       # Number of conflicting stores.
system.cpu0.memDep0.insertedLoads           444543872                       # Number of loads inserted to the mem dependence unit.
system.cpu0.memDep0.insertedStores          181826782                       # Number of stores inserted to the mem dependence unit.
system.cpu0.misc_regfile_reads                   1897                       # number of misc regfile reads
system.cpu0.misc_regfile_writes                    22                       # number of misc regfile writes
system.cpu0.numCycles                      2689297124                       # number of cpu cycles simulated
system.cpu0.numWorkItemsCompleted                   0                       # number of work items this cpu completed
system.cpu0.numWorkItemsStarted                     0                       # number of work items this cpu started
system.cpu0.quiesceCycles                     7260162                       # Total number of cycles that CPU has spent quiesced or waiting for an interrupt
system.cpu0.rename.BlockCycles              414151076                       # Number of cycles rename is blocking
system.cpu0.rename.CommittedMaps            845198858                       # Number of HB maps that are committed
system.cpu0.rename.IQFullEvents              14542849                       # Number of times rename has blocked due to IQ full
system.cpu0.rename.IdleCycles               981290312                       # Number of cycles rename is idle
system.cpu0.rename.LQFullEvents              28961735                       # Number of times rename has blocked due to LQ full
system.cpu0.rename.ROBFullEvents                21855                       # Number of times rename has blocked due to ROB full
system.cpu0.rename.RenameLookups           1796020061                       # Number of register rename lookups that rename has made
system.cpu0.rename.RenamedInsts            1457356497                       # Number of instructions processed by rename
system.cpu0.rename.RenamedOperands          939520292                       # Number of destination operands rename has renamed
system.cpu0.rename.RunCycles                997330482                       # Number of cycles rename is running
system.cpu0.rename.SQFullEvents              24884216                       # Number of times rename has blocked due to SQ full
system.cpu0.rename.SquashCycles              14062977                       # Number of cycles rename is squashing
system.cpu0.rename.UnblockCycles             69122074                       # Number of cycles rename is unblocking
system.cpu0.rename.UndoneMaps                94321429                       # Number of HB maps that are undone due to squashing
system.cpu0.rename.fp_rename_lookups               45                       # Number of floating rename lookups
system.cpu0.rename.int_rename_lookups      1796020016                       # Number of integer rename lookups
system.cpu0.rename.serializeStallCycles        158160                       # count of cycles rename stalled for serializing inst
system.cpu0.rename.serializingInsts              5883                       # count of serializing insts renamed
system.cpu0.rename.skidInsts                 32977999                       # count of insts added to the skid buffer
system.cpu0.rename.tempSerializingInsts          5831                       # count of temporary serializing insts renamed
system.cpu0.rob.rob_reads                  3848029067                       # The number of ROB reads
system.cpu0.rob.rob_writes                 2911271598                       # The number of ROB writes
system.cpu0.timesIdled                       30361166                       # Number of times that the entire CPU went into an idle state and unscheduled itself
system.cpu0.workload.numSyscalls                 1864                       # Number of system calls
system.cpu1.branchPred.BTBCorrect                   0                       # Number of correct BTB predictions (this stat may not work properly.
system.cpu1.branchPred.BTBHitPct            90.249746                       # BTB Hit Percentage
system.cpu1.branchPred.BTBHits               20843177                       # Number of BTB hits
system.cpu1.branchPred.BTBLookups            23094998                       # Number of BTB lookups
system.cpu1.branchPred.RASInCorrect                 0                       # Number of incorrect RAS predictions.
system.cpu1.branchPred.condIncorrect          2801042                       # Number of conditional branches incorrect
system.cpu1.branchPred.condPredicted         30809974                       # Number of conditional branches predicted
system.cpu1.branchPred.indirectHits           1070194                       # Number of indirect target hits.
system.cpu1.branchPred.indirectLookups        1086137                       # Number of indirect predictor lookups.
system.cpu1.branchPred.indirectMisses           15943                       # Number of indirect misses.
system.cpu1.branchPred.lookups               35494808                       # Number of BP lookups
system.cpu1.branchPred.usedRAS                      0                       # Number of times the RAS was used to get a target.
system.cpu1.branchPredindirectMispredicted        48206                       # Number of mispredicted indirect branches.
system.cpu1.commit.amos                       2100000                       # Number of atomic instructions committed
system.cpu1.commit.branchMispredicts          1991505                       # The number of times a branch was mispredicted
system.cpu1.commit.branches                  28119244                       # Number of branches committed
system.cpu1.commit.bw_lim_events              4209553                       # number cycles where commit BW limit reached
system.cpu1.commit.commitNonSpecStalls        6300686                       # The number of times commit has been forced to stall to communicate backwards
system.cpu1.commit.commitSquashedInsts       17757089                       # The number of squashed insts skipped by commit
system.cpu1.commit.committedInsts           120065713                       # Number of instructions committed
system.cpu1.commit.committedOps             122165895                       # Number of ops (including micro ops) committed
system.cpu1.commit.committed_per_cycle::samples    469147680                       # Number of insts commited each cycle
system.cpu1.commit.committed_per_cycle::mean     0.260400                       # Number of insts commited each cycle
system.cpu1.commit.committed_per_cycle::stdev     1.030803                       # Number of insts commited each cycle
system.cpu1.commit.committed_per_cycle::underflows            0      0.00%      0.00% # Number of insts commited each cycle
system.cpu1.commit.committed_per_cycle::0    419845738     89.49%     89.49% # Number of insts commited each cycle
system.cpu1.commit.committed_per_cycle::1     24334482      5.19%     94.68% # Number of insts commited each cycle
system.cpu1.commit.committed_per_cycle::2      8985923      1.92%     96.59% # Number of insts commited each cycle
system.cpu1.commit.committed_per_cycle::3      6979859      1.49%     98.08% # Number of insts commited each cycle
system.cpu1.commit.committed_per_cycle::4      1565446      0.33%     98.41% # Number of insts commited each cycle
system.cpu1.commit.committed_per_cycle::5       754398      0.16%     98.58% # Number of insts commited each cycle
system.cpu1.commit.committed_per_cycle::6      2096175      0.45%     99.02% # Number of insts commited each cycle
system.cpu1.commit.committed_per_cycle::7       376106      0.08%     99.10% # Number of insts commited each cycle
system.cpu1.commit.committed_per_cycle::8      4209553      0.90%    100.00% # Number of insts commited each cycle
system.cpu1.commit.committed_per_cycle::overflows            0      0.00%    100.00% # Number of insts commited each cycle
system.cpu1.commit.committed_per_cycle::min_value            0                       # Number of insts commited each cycle
system.cpu1.commit.committed_per_cycle::max_value            8                       # Number of insts commited each cycle
system.cpu1.commit.committed_per_cycle::total    469147680                       # Number of insts commited each cycle
system.cpu1.commit.fp_insts                        12                       # Number of committed floating point instructions.
system.cpu1.commit.function_calls             1797993                       # Number of function calls committed.
system.cpu1.commit.int_insts                116603025                       # Number of committed integer instructions.
system.cpu1.commit.loads                     30175925                       # Number of loads committed
system.cpu1.commit.membars                    4200132                       # Number of memory barriers committed
system.cpu1.commit.op_class_0::No_OpClass      4200132      3.44%      3.44% # Class of committed instruction
system.cpu1.commit.op_class_0::IntAlu        76668013     62.76%     66.20% # Class of committed instruction
system.cpu1.commit.op_class_0::IntMult             44      0.00%     66.20% # Class of committed instruction
system.cpu1.commit.op_class_0::IntDiv              88      0.00%     66.20% # Class of committed instruction
system.cpu1.commit.op_class_0::FloatAdd             0      0.00%     66.20% # Class of committed instruction
system.cpu1.commit.op_class_0::FloatCmp             0      0.00%     66.20% # Class of committed instruction
system.cpu1.commit.op_class_0::FloatCvt             0      0.00%     66.20% # Class of committed instruction
system.cpu1.commit.op_class_0::FloatMult            0      0.00%     66.20% # Class of committed instruction
system.cpu1.commit.op_class_0::FloatMultAcc            0      0.00%     66.20% # Class of committed instruction
system.cpu1.commit.op_class_0::FloatDiv             0      0.00%     66.20% # Class of committed instruction
system.cpu1.commit.op_class_0::FloatMisc            0      0.00%     66.20% # Class of committed instruction
system.cpu1.commit.op_class_0::FloatSqrt            0      0.00%     66.20% # Class of committed instruction
system.cpu1.commit.op_class_0::SimdAdd              0      0.00%     66.20% # Class of committed instruction
system.cpu1.commit.op_class_0::SimdAddAcc            0      0.00%     66.20% # Class of committed instruction
system.cpu1.commit.op_class_0::SimdAlu              0      0.00%     66.20% # Class of committed instruction
system.cpu1.commit.op_class_0::SimdCmp              0      0.00%     66.20% # Class of committed instruction
system.cpu1.commit.op_class_0::SimdCvt              0      0.00%     66.20% # Class of committed instruction
system.cpu1.commit.op_class_0::SimdMisc             0      0.00%     66.20% # Class of committed instruction
system.cpu1.commit.op_class_0::SimdMult             0      0.00%     66.20% # Class of committed instruction
system.cpu1.commit.op_class_0::SimdMultAcc            0      0.00%     66.20% # Class of committed instruction
system.cpu1.commit.op_class_0::SimdShift            0      0.00%     66.20% # Class of committed instruction
system.cpu1.commit.op_class_0::SimdShiftAcc            0      0.00%     66.20% # Class of committed instruction
system.cpu1.commit.op_class_0::SimdDiv              0      0.00%     66.20% # Class of committed instruction
system.cpu1.commit.op_class_0::SimdSqrt             0      0.00%     66.20% # Class of committed instruction
system.cpu1.commit.op_class_0::SimdFloatAdd            0      0.00%     66.20% # Class of committed instruction
system.cpu1.commit.op_class_0::SimdFloatAlu            0      0.00%     66.20% # Class of committed instruction
system.cpu1.commit.op_class_0::SimdFloatCmp            0      0.00%     66.20% # Class of committed instruction
system.cpu1.commit.op_class_0::SimdFloatCvt            0      0.00%     66.20% # Class of committed instruction
system.cpu1.commit.op_class_0::SimdFloatDiv            0      0.00%     66.20% # Class of committed instruction
system.cpu1.commit.op_class_0::SimdFloatMisc            0      0.00%     66.20% # Class of committed instruction
system.cpu1.commit.op_class_0::SimdFloatMult            0      0.00%     66.20% # Class of committed instruction
system.cpu1.commit.op_class_0::SimdFloatMultAcc            0      0.00%     66.20% # Class of committed instruction
system.cpu1.commit.op_class_0::SimdFloatSqrt            0      0.00%     66.20% # Class of committed instruction
system.cpu1.commit.op_class_0::SimdReduceAdd            0      0.00%     66.20% # Class of committed instruction
system.cpu1.commit.op_class_0::SimdReduceAlu            0      0.00%     66.20% # Class of committed instruction
system.cpu1.commit.op_class_0::SimdReduceCmp            0      0.00%     66.20% # Class of committed instruction
system.cpu1.commit.op_class_0::SimdFloatReduceAdd            0      0.00%     66.20% # Class of committed instruction
system.cpu1.commit.op_class_0::SimdFloatReduceCmp            0      0.00%     66.20% # Class of committed instruction
system.cpu1.commit.op_class_0::SimdAes              0      0.00%     66.20% # Class of committed instruction
system.cpu1.commit.op_class_0::SimdAesMix            0      0.00%     66.20% # Class of committed instruction
system.cpu1.commit.op_class_0::SimdSha1Hash            0      0.00%     66.20% # Class of committed instruction
system.cpu1.commit.op_class_0::SimdSha1Hash2            0      0.00%     66.20% # Class of committed instruction
system.cpu1.commit.op_class_0::SimdSha256Hash            0      0.00%     66.20% # Class of committed instruction
system.cpu1.commit.op_class_0::SimdSha256Hash2            0      0.00%     66.20% # Class of committed instruction
system.cpu1.commit.op_class_0::SimdShaSigma2            0      0.00%     66.20% # Class of committed instruction
system.cpu1.commit.op_class_0::SimdShaSigma3            0      0.00%     66.20% # Class of committed instruction
system.cpu1.commit.op_class_0::SimdPredAlu            0      0.00%     66.20% # Class of committed instruction
system.cpu1.commit.op_class_0::MemRead       32275925     26.42%     92.62% # Class of committed instruction
system.cpu1.commit.op_class_0::MemWrite       9021681      7.38%    100.00% # Class of committed instruction
system.cpu1.commit.op_class_0::FloatMemRead            0      0.00%    100.00% # Class of committed instruction
system.cpu1.commit.op_class_0::FloatMemWrite           12      0.00%    100.00% # Class of committed instruction
system.cpu1.commit.op_class_0::IprAccess            0      0.00%    100.00% # Class of committed instruction
system.cpu1.commit.op_class_0::InstPrefetch            0      0.00%    100.00% # Class of committed instruction
system.cpu1.commit.op_class_0::total        122165895                       # Class of committed instruction
system.cpu1.commit.refs                      41297618                       # Number of memory references committed
system.cpu1.commit.swp_count                        0                       # Number of s/w prefetches committed
system.cpu1.commit.vec_insts                        0                       # Number of committed Vector instructions.
system.cpu1.committedInsts                  120065713                       # Number of Instructions Simulated
system.cpu1.committedOps                    122165895                       # Number of Ops (including micro ops) Simulated
system.cpu1.cpi                              3.944632                       # CPI: Cycles Per Instruction
system.cpu1.cpi_total                        3.944632                       # CPI: Total CPI of All Threads
system.cpu1.decode.BlockedCycles            371336040                       # Number of cycles decode is blocked
system.cpu1.decode.BranchMispred               860553                       # Number of times decode detected a branch misprediction
system.cpu1.decode.BranchResolved            19954223                       # Number of times decode resolved a branch
system.cpu1.decode.DecodedInsts             146536259                       # Number of instructions handled by decode
system.cpu1.decode.IdleCycles                27380832                       # Number of cycles decode is idle
system.cpu1.decode.RunCycles                 66744393                       # Number of cycles decode is running
system.cpu1.decode.SquashCycles               1993171                       # Number of cycles decode is squashing
system.cpu1.decode.SquashedInsts              2060664                       # Number of squashed instructions handled by decode
system.cpu1.decode.UnblockCycles              5264676                       # Number of cycles decode is unblocking
system.cpu1.dtb.accesses                            0                       # DTB accesses
system.cpu1.dtb.hits                                0                       # DTB hits
system.cpu1.dtb.misses                              0                       # DTB misses
system.cpu1.dtb.read_accesses                       0                       # DTB read accesses
system.cpu1.dtb.read_hits                           0                       # DTB read hits
system.cpu1.dtb.read_misses                         0                       # DTB read misses
system.cpu1.dtb.write_accesses                      0                       # DTB write accesses
system.cpu1.dtb.write_hits                          0                       # DTB write hits
system.cpu1.dtb.write_misses                        0                       # DTB write misses
system.cpu1.fetch.Branches                   35494808                       # Number of branches that fetch encountered
system.cpu1.fetch.CacheLines                 23446389                       # Number of cache lines fetched
system.cpu1.fetch.Cycles                    444489120                       # Number of cycles fetch has run and was not squashing or blocked
system.cpu1.fetch.IcacheSquashes               198827                       # Number of outstanding Icache misses that were squashed
system.cpu1.fetch.Insts                     151465375                       # Number of instructions fetch has processed
system.cpu1.fetch.MiscStallCycles                   1                       # Number of cycles fetch has spent waiting on interrupts, or bad addresses, or out of MSHRs
system.cpu1.fetch.SquashCycles                5605416                       # Number of cycles fetch has spent squashing
system.cpu1.fetch.branchRate                 0.074944                       # Number of branch fetches per cycle
system.cpu1.fetch.icacheStallCycles          25427283                       # Number of cycles fetch is stalled on an Icache miss
system.cpu1.fetch.predictedBranches          21913371                       # Number of branches that fetch has predicted taken
system.cpu1.fetch.rate                       0.319807                       # Number of inst fetches per cycle
system.cpu1.fetch.rateDist::samples         472719112                       # Number of instructions fetched each cycle (Total)
system.cpu1.fetch.rateDist::mean             0.324856                       # Number of instructions fetched each cycle (Total)
system.cpu1.fetch.rateDist::stdev            0.756388                       # Number of instructions fetched each cycle (Total)
system.cpu1.fetch.rateDist::underflows              0      0.00%      0.00% # Number of instructions fetched each cycle (Total)
system.cpu1.fetch.rateDist::0               375591726     79.45%     79.45% # Number of instructions fetched each cycle (Total)
system.cpu1.fetch.rateDist::1                61649799     13.04%     92.49% # Number of instructions fetched each cycle (Total)
system.cpu1.fetch.rateDist::2                19281925      4.08%     96.57% # Number of instructions fetched each cycle (Total)
system.cpu1.fetch.rateDist::3                12582084      2.66%     99.24% # Number of instructions fetched each cycle (Total)
system.cpu1.fetch.rateDist::4                 2530022      0.54%     99.77% # Number of instructions fetched each cycle (Total)
system.cpu1.fetch.rateDist::5                 1018131      0.22%     99.99% # Number of instructions fetched each cycle (Total)
system.cpu1.fetch.rateDist::6                   62875      0.01%    100.00% # Number of instructions fetched each cycle (Total)
system.cpu1.fetch.rateDist::7                    2423      0.00%    100.00% # Number of instructions fetched each cycle (Total)
system.cpu1.fetch.rateDist::8                     127      0.00%    100.00% # Number of instructions fetched each cycle (Total)
system.cpu1.fetch.rateDist::overflows               0      0.00%    100.00% # Number of instructions fetched each cycle (Total)
system.cpu1.fetch.rateDist::min_value               0                       # Number of instructions fetched each cycle (Total)
system.cpu1.fetch.rateDist::max_value               8                       # Number of instructions fetched each cycle (Total)
system.cpu1.fetch.rateDist::total           472719112                       # Number of instructions fetched each cycle (Total)
system.cpu1.fp_regfile_reads                       12                       # number of floating regfile reads
system.cpu1.idleCycles                         895889                       # Total number of cycles that the CPU has spent unscheduled due to idling
system.cpu1.iew.branchMispredicts             2107938                       # Number of branch mispredicts detected at execute
system.cpu1.iew.exec_branches                30721060                       # Number of branches executed
system.cpu1.iew.exec_nop                            0                       # number of nop insts executed
system.cpu1.iew.exec_rate                    0.283858                       # Inst execution rate
system.cpu1.iew.exec_refs                    45882809                       # number of memory reference insts executed
system.cpu1.iew.exec_stores                  11521362                       # Number of stores executed
system.cpu1.iew.exec_swp                            0                       # number of swp insts executed
system.cpu1.iew.iewBlockCycles              309828198                       # Number of cycles IEW is blocking
system.cpu1.iew.iewDispLoadInsts             35133774                       # Number of dispatched load instructions
system.cpu1.iew.iewDispNonSpecInsts           2100639                       # Number of dispatched non-speculative instructions
system.cpu1.iew.iewDispSquashedInsts          1699333                       # Number of squashed instructions skipped by dispatch
system.cpu1.iew.iewDispStoreInsts            11894809                       # Number of dispatched store instructions
system.cpu1.iew.iewDispatchedInsts          139872508                       # Number of instructions dispatched to IQ
system.cpu1.iew.iewExecLoadInsts             34361447                       # Number of load instructions executed
system.cpu1.iew.iewExecSquashedInsts          1967819                       # Number of squashed instructions skipped in execute
system.cpu1.iew.iewExecutedInsts            134439202                       # Number of executed instructions
system.cpu1.iew.iewIQFullEvents               1918141                       # Number of times the IQ has become full, causing a stall
system.cpu1.iew.iewIdleCycles                       0                       # Number of cycles IEW is idle
system.cpu1.iew.iewLSQFullEvents              5718625                       # Number of times the LSQ has become full, causing a stall
system.cpu1.iew.iewSquashCycles               1993171                       # Number of cycles IEW is squashing
system.cpu1.iew.iewUnblockCycles              9905404                       # Number of cycles IEW is unblocking
system.cpu1.iew.lsq.thread0.blockedLoads            0                       # Number of blocked loads due to partial load-store forwarding
system.cpu1.iew.lsq.thread0.cacheBlocked       100429                       # Number of times an access to memory failed due to the cache being blocked
system.cpu1.iew.lsq.thread0.forwLoads         1023976                       # Number of loads that had data forwarded from stores
system.cpu1.iew.lsq.thread0.ignoredResponses        27800                       # Number of memory responses ignored because the instruction is squashed
system.cpu1.iew.lsq.thread0.invAddrLoads            0                       # Number of loads ignored due to an invalid address
system.cpu1.iew.lsq.thread0.invAddrSwpfs            0                       # Number of software prefetches ignored due to an invalid address
system.cpu1.iew.lsq.thread0.memOrderViolation         2259                       # Number of memory ordering violations
system.cpu1.iew.lsq.thread0.rescheduledLoads        13656                       # Number of loads that were rescheduled
system.cpu1.iew.lsq.thread0.squashedLoads      4957849                       # Number of loads squashed
system.cpu1.iew.lsq.thread0.squashedStores       773116                       # Number of stores squashed
system.cpu1.iew.memOrderViolationEvents          2259                       # Number of memory order violations
system.cpu1.iew.predictedNotTakenIncorrect       536140                       # Number of branches that were predicted not taken incorrectly
system.cpu1.iew.predictedTakenIncorrect       1571798                       # Number of branches that were predicted taken incorrectly
system.cpu1.iew.wb_consumers                 75376998                       # num instructions consuming a value
system.cpu1.iew.wb_count                    132976589                       # cumulative count of insts written-back
system.cpu1.iew.wb_fanout                    0.853131                       # average fanout of values written-back
system.cpu1.iew.wb_producers                 64306476                       # num instructions producing a value
system.cpu1.iew.wb_rate                      0.280769                       # insts written-back per cycle
system.cpu1.iew.wb_sent                     133042981                       # cumulative count of insts sent to commit
system.cpu1.int_regfile_reads               170455368                       # number of integer regfile reads
system.cpu1.int_regfile_writes               89721810                       # number of integer regfile writes
system.cpu1.ipc                              0.253509                       # IPC: Instructions Per Cycle
system.cpu1.ipc_total                        0.253509                       # IPC: Total IPC of All Threads
system.cpu1.iq.FU_type_0::No_OpClass          4200233      3.08%      3.08% # Type of FU issued
system.cpu1.iq.FU_type_0::IntAlu             85755367     62.87%     65.95% # Type of FU issued
system.cpu1.iq.FU_type_0::IntMult                  46      0.00%     65.95% # Type of FU issued
system.cpu1.iq.FU_type_0::IntDiv                   90      0.00%     65.95% # Type of FU issued
system.cpu1.iq.FU_type_0::FloatAdd                  0      0.00%     65.95% # Type of FU issued
system.cpu1.iq.FU_type_0::FloatCmp                  0      0.00%     65.95% # Type of FU issued
system.cpu1.iq.FU_type_0::FloatCvt                  0      0.00%     65.95% # Type of FU issued
system.cpu1.iq.FU_type_0::FloatMult                 0      0.00%     65.95% # Type of FU issued
system.cpu1.iq.FU_type_0::FloatMultAcc              0      0.00%     65.95% # Type of FU issued
system.cpu1.iq.FU_type_0::FloatDiv                  0      0.00%     65.95% # Type of FU issued
system.cpu1.iq.FU_type_0::FloatMisc                 0      0.00%     65.95% # Type of FU issued
system.cpu1.iq.FU_type_0::FloatSqrt                 0      0.00%     65.95% # Type of FU issued
system.cpu1.iq.FU_type_0::SimdAdd                   0      0.00%     65.95% # Type of FU issued
system.cpu1.iq.FU_type_0::SimdAddAcc                0      0.00%     65.95% # Type of FU issued
system.cpu1.iq.FU_type_0::SimdAlu                   0      0.00%     65.95% # Type of FU issued
system.cpu1.iq.FU_type_0::SimdCmp                   0      0.00%     65.95% # Type of FU issued
system.cpu1.iq.FU_type_0::SimdCvt                   0      0.00%     65.95% # Type of FU issued
system.cpu1.iq.FU_type_0::SimdMisc                  0      0.00%     65.95% # Type of FU issued
system.cpu1.iq.FU_type_0::SimdMult                  0      0.00%     65.95% # Type of FU issued
system.cpu1.iq.FU_type_0::SimdMultAcc               0      0.00%     65.95% # Type of FU issued
system.cpu1.iq.FU_type_0::SimdShift                 0      0.00%     65.95% # Type of FU issued
system.cpu1.iq.FU_type_0::SimdShiftAcc              0      0.00%     65.95% # Type of FU issued
system.cpu1.iq.FU_type_0::SimdDiv                   0      0.00%     65.95% # Type of FU issued
system.cpu1.iq.FU_type_0::SimdSqrt                  0      0.00%     65.95% # Type of FU issued
system.cpu1.iq.FU_type_0::SimdFloatAdd              0      0.00%     65.95% # Type of FU issued
system.cpu1.iq.FU_type_0::SimdFloatAlu              0      0.00%     65.95% # Type of FU issued
system.cpu1.iq.FU_type_0::SimdFloatCmp              0      0.00%     65.95% # Type of FU issued
system.cpu1.iq.FU_type_0::SimdFloatCvt              0      0.00%     65.95% # Type of FU issued
system.cpu1.iq.FU_type_0::SimdFloatDiv              0      0.00%     65.95% # Type of FU issued
system.cpu1.iq.FU_type_0::SimdFloatMisc             0      0.00%     65.95% # Type of FU issued
system.cpu1.iq.FU_type_0::SimdFloatMult             0      0.00%     65.95% # Type of FU issued
system.cpu1.iq.FU_type_0::SimdFloatMultAcc            0      0.00%     65.95% # Type of FU issued
system.cpu1.iq.FU_type_0::SimdFloatSqrt             0      0.00%     65.95% # Type of FU issued
system.cpu1.iq.FU_type_0::SimdReduceAdd             0      0.00%     65.95% # Type of FU issued
system.cpu1.iq.FU_type_0::SimdReduceAlu             0      0.00%     65.95% # Type of FU issued
system.cpu1.iq.FU_type_0::SimdReduceCmp             0      0.00%     65.95% # Type of FU issued
system.cpu1.iq.FU_type_0::SimdFloatReduceAdd            0      0.00%     65.95% # Type of FU issued
system.cpu1.iq.FU_type_0::SimdFloatReduceCmp            0      0.00%     65.95% # Type of FU issued
system.cpu1.iq.FU_type_0::SimdAes                   0      0.00%     65.95% # Type of FU issued
system.cpu1.iq.FU_type_0::SimdAesMix                0      0.00%     65.95% # Type of FU issued
system.cpu1.iq.FU_type_0::SimdSha1Hash              0      0.00%     65.95% # Type of FU issued
system.cpu1.iq.FU_type_0::SimdSha1Hash2             0      0.00%     65.95% # Type of FU issued
system.cpu1.iq.FU_type_0::SimdSha256Hash            0      0.00%     65.95% # Type of FU issued
system.cpu1.iq.FU_type_0::SimdSha256Hash2            0      0.00%     65.95% # Type of FU issued
system.cpu1.iq.FU_type_0::SimdShaSigma2             0      0.00%     65.95% # Type of FU issued
system.cpu1.iq.FU_type_0::SimdShaSigma3             0      0.00%     65.95% # Type of FU issued
system.cpu1.iq.FU_type_0::SimdPredAlu               0      0.00%     65.95% # Type of FU issued
system.cpu1.iq.FU_type_0::MemRead            36964993     27.10%     93.05% # Type of FU issued
system.cpu1.iq.FU_type_0::MemWrite            9486280      6.95%    100.00% # Type of FU issued
system.cpu1.iq.FU_type_0::FloatMemRead              0      0.00%    100.00% # Type of FU issued
system.cpu1.iq.FU_type_0::FloatMemWrite            12      0.00%    100.00% # Type of FU issued
system.cpu1.iq.FU_type_0::IprAccess                 0      0.00%    100.00% # Type of FU issued
system.cpu1.iq.FU_type_0::InstPrefetch              0      0.00%    100.00% # Type of FU issued
system.cpu1.iq.FU_type_0::total             136407021                       # Type of FU issued
system.cpu1.iq.fp_alu_accesses                     14                       # Number of floating point alu accesses
system.cpu1.iq.fp_inst_queue_reads                 26                       # Number of floating instruction queue reads
system.cpu1.iq.fp_inst_queue_wakeup_accesses           12                       # Number of floating instruction queue wakeup accesses
system.cpu1.iq.fp_inst_queue_writes                12                       # Number of floating instruction queue writes
system.cpu1.iq.fu_busy_cnt                    2857952                       # FU busy when requested
system.cpu1.iq.fu_busy_rate                  0.020952                       # FU busy rate (busy events/executed inst)
system.cpu1.iq.fu_full::No_OpClass                  0      0.00%      0.00% # attempts to use FU when none available
system.cpu1.iq.fu_full::IntAlu                 611347     21.39%     21.39% # attempts to use FU when none available
system.cpu1.iq.fu_full::IntMult                     0      0.00%     21.39% # attempts to use FU when none available
system.cpu1.iq.fu_full::IntDiv                      0      0.00%     21.39% # attempts to use FU when none available
system.cpu1.iq.fu_full::FloatAdd                    0      0.00%     21.39% # attempts to use FU when none available
system.cpu1.iq.fu_full::FloatCmp                    0      0.00%     21.39% # attempts to use FU when none available
system.cpu1.iq.fu_full::FloatCvt                    0      0.00%     21.39% # attempts to use FU when none available
system.cpu1.iq.fu_full::FloatMult                   0      0.00%     21.39% # attempts to use FU when none available
system.cpu1.iq.fu_full::FloatMultAcc                0      0.00%     21.39% # attempts to use FU when none available
system.cpu1.iq.fu_full::FloatDiv                    0      0.00%     21.39% # attempts to use FU when none available
system.cpu1.iq.fu_full::FloatMisc                   0      0.00%     21.39% # attempts to use FU when none available
system.cpu1.iq.fu_full::FloatSqrt                   0      0.00%     21.39% # attempts to use FU when none available
system.cpu1.iq.fu_full::SimdAdd                     0      0.00%     21.39% # attempts to use FU when none available
system.cpu1.iq.fu_full::SimdAddAcc                  0      0.00%     21.39% # attempts to use FU when none available
system.cpu1.iq.fu_full::SimdAlu                     0      0.00%     21.39% # attempts to use FU when none available
system.cpu1.iq.fu_full::SimdCmp                     0      0.00%     21.39% # attempts to use FU when none available
system.cpu1.iq.fu_full::SimdCvt                     0      0.00%     21.39% # attempts to use FU when none available
system.cpu1.iq.fu_full::SimdMisc                    0      0.00%     21.39% # attempts to use FU when none available
system.cpu1.iq.fu_full::SimdMult                    0      0.00%     21.39% # attempts to use FU when none available
system.cpu1.iq.fu_full::SimdMultAcc                 0      0.00%     21.39% # attempts to use FU when none available
system.cpu1.iq.fu_full::SimdShift                   0      0.00%     21.39% # attempts to use FU when none available
system.cpu1.iq.fu_full::SimdShiftAcc                0      0.00%     21.39% # attempts to use FU when none available
system.cpu1.iq.fu_full::SimdDiv                     0      0.00%     21.39% # attempts to use FU when none available
system.cpu1.iq.fu_full::SimdSqrt                    0      0.00%     21.39% # attempts to use FU when none available
system.cpu1.iq.fu_full::SimdFloatAdd                0      0.00%     21.39% # attempts to use FU when none available
system.cpu1.iq.fu_full::SimdFloatAlu                0      0.00%     21.39% # attempts to use FU when none available
system.cpu1.iq.fu_full::SimdFloatCmp                0      0.00%     21.39% # attempts to use FU when none available
system.cpu1.iq.fu_full::SimdFloatCvt                0      0.00%     21.39% # attempts to use FU when none available
system.cpu1.iq.fu_full::SimdFloatDiv                0      0.00%     21.39% # attempts to use FU when none available
system.cpu1.iq.fu_full::SimdFloatMisc               0      0.00%     21.39% # attempts to use FU when none available
system.cpu1.iq.fu_full::SimdFloatMult               0      0.00%     21.39% # attempts to use FU when none available
system.cpu1.iq.fu_full::SimdFloatMultAcc            0      0.00%     21.39% # attempts to use FU when none available
system.cpu1.iq.fu_full::SimdFloatSqrt               0      0.00%     21.39% # attempts to use FU when none available
system.cpu1.iq.fu_full::SimdReduceAdd               0      0.00%     21.39% # attempts to use FU when none available
system.cpu1.iq.fu_full::SimdReduceAlu               0      0.00%     21.39% # attempts to use FU when none available
system.cpu1.iq.fu_full::SimdReduceCmp               0      0.00%     21.39% # attempts to use FU when none available
system.cpu1.iq.fu_full::SimdFloatReduceAdd            0      0.00%     21.39% # attempts to use FU when none available
system.cpu1.iq.fu_full::SimdFloatReduceCmp            0      0.00%     21.39% # attempts to use FU when none available
system.cpu1.iq.fu_full::SimdAes                     0      0.00%     21.39% # attempts to use FU when none available
system.cpu1.iq.fu_full::SimdAesMix                  0      0.00%     21.39% # attempts to use FU when none available
system.cpu1.iq.fu_full::SimdSha1Hash                0      0.00%     21.39% # attempts to use FU when none available
system.cpu1.iq.fu_full::SimdSha1Hash2               0      0.00%     21.39% # attempts to use FU when none available
system.cpu1.iq.fu_full::SimdSha256Hash              0      0.00%     21.39% # attempts to use FU when none available
system.cpu1.iq.fu_full::SimdSha256Hash2             0      0.00%     21.39% # attempts to use FU when none available
system.cpu1.iq.fu_full::SimdShaSigma2               0      0.00%     21.39% # attempts to use FU when none available
system.cpu1.iq.fu_full::SimdShaSigma3               0      0.00%     21.39% # attempts to use FU when none available
system.cpu1.iq.fu_full::SimdPredAlu                 0      0.00%     21.39% # attempts to use FU when none available
system.cpu1.iq.fu_full::MemRead               1812971     63.44%     84.83% # attempts to use FU when none available
system.cpu1.iq.fu_full::MemWrite               433632     15.17%    100.00% # attempts to use FU when none available
[...]
system.cpu1.dcache.WriteReq_hits::.cpu1.data      3815612                       # number of WriteReq hits
system.cpu1.dcache.WriteReq_hits::total       3815612                       # number of WriteReq hits
system.cpu1.dcache.WriteReq_misses::.cpu1.data      2096790                       # number of WriteReq misses
system.cpu1.dcache.WriteReq_misses::total      2096790                       # number of WriteReq misses
system.cpu1.dcache.WriteReq_miss_latency::.cpu1.data 132934160793                       # number of WriteReq miss cycles
system.cpu1.dcache.WriteReq_miss_latency::total 132934160793                       # number of WriteReq miss cycles
system.cpu1.dcache.WriteReq_accesses::.cpu1.data      5912402                       # number of WriteReq accesses(hits+misses)
system.cpu1.dcache.WriteReq_accesses::total      5912402                       # number of WriteReq accesses(hits+misses)
system.cpu1.dcache.WriteReq_miss_rate::.cpu1.data     0.354643                       # miss rate for WriteReq accesses
system.cpu1.dcache.WriteReq_miss_rate::total     0.354643                       # miss rate for WriteReq accesses
system.cpu1.dcache.WriteReq_avg_miss_latency::.cpu1.data 63398.891063                       # average WriteReq miss latency
system.cpu1.dcache.WriteReq_avg_miss_latency::total 63398.891063                       # average WriteReq miss latency
system.cpu1.dcache.WriteReq_mshr_hits::.cpu1.data      1872949                       # number of WriteReq MSHR hits
system.cpu1.dcache.WriteReq_mshr_hits::total      1872949                       # number of WriteReq MSHR hits
system.cpu1.dcache.WriteReq_mshr_misses::.cpu1.data       223841                       # number of WriteReq MSHR misses
system.cpu1.dcache.WriteReq_mshr_misses::total       223841                       # number of WriteReq MSHR misses
system.cpu1.dcache.WriteReq_mshr_miss_latency::.cpu1.data  12753779498                       # number of WriteReq MSHR miss cycles
system.cpu1.dcache.WriteReq_mshr_miss_latency::total  12753779498                       # number of WriteReq MSHR miss cycles
system.cpu1.dcache.WriteReq_mshr_miss_rate::.cpu1.data     0.037860                       # mshr miss rate for WriteReq accesses
system.cpu1.dcache.WriteReq_mshr_miss_rate::total     0.037860                       # mshr miss rate for WriteReq accesses
system.cpu1.dcache.WriteReq_avg_mshr_miss_latency::.cpu1.data 56976.959083                       # average WriteReq mshr miss latency
system.cpu1.dcache.WriteReq_avg_mshr_miss_latency::total 56976.959083                       # average WriteReq mshr miss latency
system.cpu1.dcache.LoadLockedReq_hits::.cpu1.data      2176561                       # number of LoadLockedReq hits
system.cpu1.dcache.LoadLockedReq_hits::total      2176561                       # number of LoadLockedReq hits
system.cpu1.dcache.LoadLockedReq_misses::.cpu1.data         7791                       # number of LoadLockedReq misses
system.cpu1.dcache.LoadLockedReq_misses::total         7791                       # number of LoadLockedReq misses
system.cpu1.dcache.LoadLockedReq_miss_latency::.cpu1.data    213192000                       # number of LoadLockedReq miss cycles
system.cpu1.dcache.LoadLockedReq_miss_latency::total    213192000                       # number of LoadLockedReq miss cycles
system.cpu1.dcache.LoadLockedReq_accesses::.cpu1.data      2184352                       # number of LoadLockedReq accesses(hits+misses)
system.cpu1.dcache.LoadLockedReq_accesses::total      2184352                       # number of LoadLockedReq accesses(hits+misses)
system.cpu1.dcache.LoadLockedReq_miss_rate::.cpu1.data     0.003567                       # miss rate for LoadLockedReq accesses
system.cpu1.dcache.LoadLockedReq_miss_rate::total     0.003567                       # miss rate for LoadLockedReq accesses
system.cpu1.dcache.LoadLockedReq_avg_miss_latency::.cpu1.data 27363.881402                       # average LoadLockedReq miss latency
system.cpu1.dcache.LoadLockedReq_avg_miss_latency::total 27363.881402                       # average LoadLockedReq miss latency
system.cpu1.dcache.LoadLockedReq_mshr_hits::.cpu1.data         1015                       # number of LoadLockedReq MSHR hits
system.cpu1.dcache.LoadLockedReq_mshr_hits::total         1015                       # number of LoadLockedReq MSHR hits
system.cpu1.dcache.LoadLockedReq_mshr_misses::.cpu1.data         6776                       # number of LoadLockedReq MSHR misses
system.cpu1.dcache.LoadLockedReq_mshr_misses::total         6776                       # number of LoadLockedReq MSHR misses
system.cpu1.dcache.LoadLockedReq_mshr_miss_latency::.cpu1.data    185288000                       # number of LoadLockedReq MSHR miss cycles
system.cpu1.dcache.LoadLockedReq_mshr_miss_latency::total    185288000                       # number of LoadLockedReq MSHR miss cycles
system.cpu1.dcache.LoadLockedReq_mshr_miss_rate::.cpu1.data     0.003102                       # mshr miss rate for LoadLockedReq accesses
system.cpu1.dcache.LoadLockedReq_mshr_miss_rate::total     0.003102                       # mshr miss rate for LoadLockedReq accesses
system.cpu1.dcache.LoadLockedReq_avg_mshr_miss_latency::.cpu1.data 27344.746163                       # average LoadLockedReq mshr miss latency
system.cpu1.dcache.LoadLockedReq_avg_mshr_miss_latency::total 27344.746163                       # average LoadLockedReq mshr miss latency
system.cpu1.dcache.StoreCondReq_hits::.cpu1.data      2182910                       # number of StoreCondReq hits
system.cpu1.dcache.StoreCondReq_hits::total      2182910                       # number of StoreCondReq hits
system.cpu1.dcache.StoreCondReq_misses::.cpu1.data         1125                       # number of StoreCondReq misses
system.cpu1.dcache.StoreCondReq_misses::total         1125                       # number of StoreCondReq misses
system.cpu1.dcache.StoreCondReq_miss_latency::.cpu1.data     21994500                       # number of StoreCondReq miss cycles
system.cpu1.dcache.StoreCondReq_miss_latency::total     21994500                       # number of StoreCondReq miss cycles
system.cpu1.dcache.StoreCondReq_accesses::.cpu1.data      2184035                       # number of StoreCondReq accesses(hits+misses)
system.cpu1.dcache.StoreCondReq_accesses::total      2184035                       # number of StoreCondReq accesses(hits+misses)
system.cpu1.dcache.StoreCondReq_miss_rate::.cpu1.data     0.000515                       # miss rate for StoreCondReq accesses
system.cpu1.dcache.StoreCondReq_miss_rate::total     0.000515                       # miss rate for StoreCondReq accesses
system.cpu1.dcache.StoreCondReq_avg_miss_latency::.cpu1.data 19550.666667                       # average StoreCondReq miss latency
system.cpu1.dcache.StoreCondReq_avg_miss_latency::total 19550.666667                       # average StoreCondReq miss latency
system.cpu1.dcache.StoreCondReq_mshr_misses::.cpu1.data         1111                       # number of StoreCondReq MSHR misses
system.cpu1.dcache.StoreCondReq_mshr_misses::total         1111                       # number of StoreCondReq MSHR misses
system.cpu1.dcache.StoreCondReq_mshr_miss_latency::.cpu1.data     20896500                       # number of StoreCondReq MSHR miss cycles
system.cpu1.dcache.StoreCondReq_mshr_miss_latency::total     20896500                       # number of StoreCondReq MSHR miss cycles
system.cpu1.dcache.StoreCondReq_mshr_miss_rate::.cpu1.data     0.000509                       # mshr miss rate for StoreCondReq accesses
system.cpu1.dcache.StoreCondReq_mshr_miss_rate::total     0.000509                       # mshr miss rate for StoreCondReq accesses
system.cpu1.dcache.StoreCondReq_avg_mshr_miss_latency::.cpu1.data 18808.730873                       # average StoreCondReq mshr miss latency
system.cpu1.dcache.StoreCondReq_avg_mshr_miss_latency::total 18808.730873                       # average StoreCondReq mshr miss latency
system.cpu1.dcache.StoreCondFailReq_miss_latency::.cpu1.data       439500                       # number of StoreCondFailReq miss cycles
system.cpu1.dcache.StoreCondFailReq_miss_latency::total       439500                       # number of StoreCondFailReq miss cycles
system.cpu1.dcache.StoreCondFailReq_avg_miss_latency::.cpu1.data          inf                       # average StoreCondFailReq miss latency
system.cpu1.dcache.StoreCondFailReq_avg_miss_latency::total          inf                       # average StoreCondFailReq miss latency
system.cpu1.dcache.StoreCondFailReq_mshr_miss_latency::.cpu1.data       426500                       # number of StoreCondFailReq MSHR miss cycles
system.cpu1.dcache.StoreCondFailReq_mshr_miss_latency::total       426500                       # number of StoreCondFailReq MSHR miss cycles
system.cpu1.dcache.StoreCondFailReq_avg_mshr_miss_latency::.cpu1.data          inf                       # average StoreCondFailReq mshr miss latency
system.cpu1.dcache.StoreCondFailReq_avg_mshr_miss_latency::total          inf                       # average StoreCondFailReq mshr miss latency
system.cpu1.dcache.SwapReq_hits::.cpu1.data          504                       # number of SwapReq hits
system.cpu1.dcache.SwapReq_hits::total            504                       # number of SwapReq hits
system.cpu1.dcache.SwapReq_misses::.cpu1.data         1871                       # number of SwapReq misses
system.cpu1.dcache.SwapReq_misses::total         1871                       # number of SwapReq misses
system.cpu1.dcache.SwapReq_miss_latency::.cpu1.data     48207994                       # number of SwapReq miss cycles
system.cpu1.dcache.SwapReq_miss_latency::total     48207994                       # number of SwapReq miss cycles
system.cpu1.dcache.SwapReq_accesses::.cpu1.data         2375                       # number of SwapReq accesses(hits+misses)
system.cpu1.dcache.SwapReq_accesses::total         2375                       # number of SwapReq accesses(hits+misses)
system.cpu1.dcache.SwapReq_miss_rate::.cpu1.data     0.787789                       # miss rate for SwapReq accesses
system.cpu1.dcache.SwapReq_miss_rate::total     0.787789                       # miss rate for SwapReq accesses
system.cpu1.dcache.SwapReq_avg_miss_latency::.cpu1.data 25765.897381                       # average SwapReq miss latency
system.cpu1.dcache.SwapReq_avg_miss_latency::total 25765.897381                       # average SwapReq miss latency
system.cpu1.dcache.SwapReq_mshr_misses::.cpu1.data         1871                       # number of SwapReq MSHR misses
system.cpu1.dcache.SwapReq_mshr_misses::total         1871                       # number of SwapReq MSHR misses
system.cpu1.dcache.SwapReq_mshr_miss_latency::.cpu1.data     46336994                       # number of SwapReq MSHR miss cycles
system.cpu1.dcache.SwapReq_mshr_miss_latency::total     46336994                       # number of SwapReq MSHR miss cycles
system.cpu1.dcache.SwapReq_mshr_miss_rate::.cpu1.data     0.787789                       # mshr miss rate for SwapReq accesses
system.cpu1.dcache.SwapReq_mshr_miss_rate::total     0.787789                       # mshr miss rate for SwapReq accesses
system.cpu1.dcache.SwapReq_avg_mshr_miss_latency::.cpu1.data 24765.897381                       # average SwapReq mshr miss latency
system.cpu1.dcache.SwapReq_avg_mshr_miss_latency::total 24765.897381                       # average SwapReq mshr miss latency
system.cpu1.dcache.tags.pwrStateResidencyTicks::UNDEFINED 1142767651500                       # Cumulative time (in ticks) in various power states
system.cpu1.dcache.tags.tagsinuse           31.992428                       # Cycle average of tags in use
system.cpu1.dcache.tags.total_refs          170536690                       # Total number of references to valid blocks.
system.cpu1.dcache.tags.sampled_refs         13142300                       # Sample count of references to valid blocks.
system.cpu1.dcache.tags.avg_refs            12.976168                       # Average number of references to valid blocks.
system.cpu1.dcache.tags.warmup_cycle                0                       # Cycle when the warmup percentage was hit.
system.cpu1.dcache.tags.occ_blocks::.cpu1.data    31.992428                       # Average occupied blocks per requestor
system.cpu1.dcache.tags.occ_percent::.cpu1.data     0.999763                       # Average percentage of cache occupancy
system.cpu1.dcache.tags.occ_percent::total     0.999763                       # Average percentage of cache occupancy
system.cpu1.dcache.tags.occ_task_id_blocks::1024           31                       # Occupied blocks per task id
system.cpu1.dcache.tags.age_task_id_blocks_1024::2           31                       # Occupied blocks per task id
system.cpu1.dcache.tags.occ_task_id_percent::1024     0.968750                       # Percentage of cache occupancy per task id
system.cpu1.dcache.tags.tag_accesses        391855700                       # Number of tag accesses
system.cpu1.dcache.tags.data_accesses       391855700                       # Number of data accesses
system.cpu_clk_domain.clock                       500                       # Clock period in ticks
system.tol2bus.pwrStateResidencyTicks::UNDEFINED 1142767651500                       # Cumulative time (in ticks) in various power states
system.tol2bus.trans_dist::ReadResp          30833379                       # Transaction distribution
system.tol2bus.trans_dist::WritebackDirty     10708279                       # Transaction distribution
system.tol2bus.trans_dist::WritebackClean     25754736                       # Transaction distribution
system.tol2bus.trans_dist::CleanEvict        97637487                       # Transaction distribution
system.tol2bus.trans_dist::HardPFReq         81448318                       # Transaction distribution
system.tol2bus.trans_dist::HardPFResp              16                       # Transaction distribution
system.tol2bus.trans_dist::UpgradeReq            9437                       # Transaction distribution
system.tol2bus.trans_dist::SCUpgradeReq          2153                       # Transaction distribution
system.tol2bus.trans_dist::UpgradeResp          11590                       # Transaction distribution
system.tol2bus.trans_dist::SCUpgradeFailReq           14                       # Transaction distribution
system.tol2bus.trans_dist::UpgradeFailResp           14                       # Transaction distribution
system.tol2bus.trans_dist::ReadExReq           493166                       # Transaction distribution
system.tol2bus.trans_dist::ReadExResp          493166                       # Transaction distribution
system.tol2bus.trans_dist::ReadCleanReq        412043                       # Transaction distribution
system.tol2bus.trans_dist::ReadSharedReq     30421336                       # Transaction distribution
system.tol2bus.trans_dist::InvalidateReq           84                       # Transaction distribution
system.tol2bus.trans_dist::InvalidateResp           84                       # Transaction distribution
system.tol2bus.pkt_count_system.cpu0.icache.mem_side::system.l2.cpu_side      1220052                       # Packet count per connected master and slave (bytes)
system.tol2bus.pkt_count_system.cpu0.dcache.mem_side::system.l2.cpu_side     53312278                       # Packet count per connected master and slave (bytes)
system.tol2bus.pkt_count_system.cpu1.icache.mem_side::system.l2.cpu_side        16077                       # Packet count per connected master and slave (bytes)
system.tol2bus.pkt_count_system.cpu1.dcache.mem_side::system.l2.cpu_side     39424754                       # Packet count per connected master and slave (bytes)
system.tol2bus.pkt_count::total              93973161                       # Packet count per connected master and slave (bytes)
system.tol2bus.pkt_size_system.cpu0.icache.mem_side::system.l2.cpu_side     52055552                       # Cumulative packet size per connected master and slave (bytes)
system.tol2bus.pkt_size_system.cpu0.dcache.mem_side::system.l2.cpu_side   2273920448                       # Cumulative packet size per connected master and slave (bytes)
system.tol2bus.pkt_size_system.cpu1.icache.mem_side::system.l2.cpu_side       685952                       # Cumulative packet size per connected master and slave (bytes)
system.tol2bus.pkt_size_system.cpu1.dcache.mem_side::system.l2.cpu_side   1681341824                       # Cumulative packet size per connected master and slave (bytes)
system.tol2bus.pkt_size::total             4008003776                       # Cumulative packet size per connected master and slave (bytes)
system.tol2bus.snoops                       184252157                       # Total snoops (count)
system.tol2bus.snoopTraffic                 330531008                       # Total snoop traffic (bytes)
system.tol2bus.snoop_fanout::samples        215571638                       # Request fanout histogram
system.tol2bus.snoop_fanout::mean            0.132679                       # Request fanout histogram
system.tol2bus.snoop_fanout::stdev           0.344574                       # Request fanout histogram
system.tol2bus.snoop_fanout::underflows             0      0.00%      0.00% # Request fanout histogram
system.tol2bus.snoop_fanout::0              187363858     86.91%     86.91% # Request fanout histogram
system.tol2bus.snoop_fanout::1               27813743     12.90%     99.82% # Request fanout histogram
system.tol2bus.snoop_fanout::2                 394037      0.18%    100.00% # Request fanout histogram
system.tol2bus.snoop_fanout::3                      0      0.00%    100.00% # Request fanout histogram
system.tol2bus.snoop_fanout::4                      0      0.00%    100.00% # Request fanout histogram
system.tol2bus.snoop_fanout::5                      0      0.00%    100.00% # Request fanout histogram
system.tol2bus.snoop_fanout::6                      0      0.00%    100.00% # Request fanout histogram
system.tol2bus.snoop_fanout::7                      0      0.00%    100.00% # Request fanout histogram
system.tol2bus.snoop_fanout::8                      0      0.00%    100.00% # Request fanout histogram
system.tol2bus.snoop_fanout::overflows              0      0.00%    100.00% # Request fanout histogram
system.tol2bus.snoop_fanout::min_value              0                       # Request fanout histogram
system.tol2bus.snoop_fanout::max_value              2                       # Request fanout histogram
system.tol2bus.snoop_fanout::total          215571638                       # Request fanout histogram
system.tol2bus.reqLayer0.occupancy        62643196313                       # Layer occupancy (ticks)
system.tol2bus.reqLayer0.utilization              5.5                       # Layer utilization (%)
system.tol2bus.respLayer1.occupancy       26670530128                       # Layer occupancy (ticks)
system.tol2bus.respLayer1.utilization             2.3                       # Layer utilization (%)
system.tol2bus.respLayer0.occupancy         610195660                       # Layer occupancy (ticks)
system.tol2bus.respLayer0.utilization             0.1                       # Layer utilization (%)
system.tol2bus.respLayer3.occupancy       19725748463                       # Layer occupancy (ticks)
system.tol2bus.respLayer3.utilization             1.7                       # Layer utilization (%)
system.tol2bus.respLayer2.occupancy           8107362                       # Layer occupancy (ticks)
system.tol2bus.respLayer2.utilization             0.0                       # Layer utilization (%)
system.tol2bus.snoopLayer0.occupancy            24013                       # Layer occupancy (ticks)
system.tol2bus.snoopLayer0.utilization            0.0                       # Layer utilization (%)

---------- End Simulation Statistics   ----------
