
---------- Begin Simulation Statistics ----------
final_tick                               1919795176000                       # Number of ticks from beginning of simulation (restored from checkpoints and never reset)
host_inst_rate                                  94669                       # Simulator instruction rate (inst/s)
host_mem_usage                                 739048                       # Number of bytes of host memory used
host_op_rate                                    94945                       # Simulator op (including micro ops) rate (op/s)
host_seconds                                 15220.55                       # Real time elapsed on the host
host_tick_rate                              126131782                       # Simulator tick rate (ticks/s)
sim_freq                                 1000000000000                       # Frequency of simulated ticks
sim_insts                                  1440916931                       # Number of instructions simulated
sim_ops                                    1445121926                       # Number of ops (including micro ops) simulated
sim_seconds                                  1.919795                       # Number of seconds simulated
sim_ticks                                1919795176000                       # Number of ticks simulated
system.cpu0.branchPred.BTBCorrect                   0                       # Number of correct BTB predictions (this stat may not work properly.
system.cpu0.branchPred.BTBHitPct            87.827725                       # BTB Hit Percentage
system.cpu0.branchPred.BTBHits              169187461                       # Number of BTB hits
system.cpu0.branchPred.BTBLookups           192635595                       # Number of BTB lookups
system.cpu0.branchPred.RASInCorrect                 0                       # Number of incorrect RAS predictions.
system.cpu0.branchPred.condIncorrect         15433203                       # Number of conditional branches incorrect
system.cpu0.branchPred.condPredicted        261750371                       # Number of conditional branches predicted
system.cpu0.branchPred.indirectHits          21002637                       # Number of indirect target hits.
system.cpu0.branchPred.indirectLookups       21760171                       # Number of indirect predictor lookups.
system.cpu0.branchPred.indirectMisses          757534                       # Number of indirect misses.
system.cpu0.branchPred.lookups              331394751                       # Number of BP lookups
system.cpu0.branchPred.usedRAS                      0                       # Number of times the RAS was used to get a target.
system.cpu0.branchPredindirectMispredicted      2149214                       # Number of mispredicted indirect branches.
system.cpu0.commit.amos                       1050475                       # Number of atomic instructions committed
system.cpu0.commit.branchMispredicts          9345091                       # The number of times a branch was mispredicted
system.cpu0.commit.branches                 313654023                       # Number of branches committed
system.cpu0.commit.bw_lim_events             41595807                       # number cycles where commit BW limit reached
system.cpu0.commit.commitNonSpecStalls        3160649                       # The number of times commit has been forced to stall to communicate backwards
system.cpu0.commit.commitSquashedInsts       61358709                       # The number of squashed insts skipped by commit
system.cpu0.commit.committedInsts          1250508317                       # Number of instructions committed
system.cpu0.commit.committedOps            1251562075                       # Number of ops (including micro ops) committed
system.cpu0.commit.committed_per_cycle::samples   2346705064                       # Number of insts commited each cycle
system.cpu0.commit.committed_per_cycle::mean     0.533327                       # Number of insts commited each cycle
system.cpu0.commit.committed_per_cycle::stdev     1.356689                       # Number of insts commited each cycle
system.cpu0.commit.committed_per_cycle::underflows            0      0.00%      0.00% # Number of insts commited each cycle
system.cpu0.commit.committed_per_cycle::0   1780106002     75.86%     75.86% # Number of insts commited each cycle
system.cpu0.commit.committed_per_cycle::1    320679181     13.67%     89.52% # Number of insts commited each cycle
system.cpu0.commit.committed_per_cycle::2     84037649      3.58%     93.10% # Number of insts commited each cycle
system.cpu0.commit.committed_per_cycle::3     82796047      3.53%     96.63% # Number of insts commited each cycle
system.cpu0.commit.committed_per_cycle::4     20181566      0.86%     97.49% # Number of insts commited each cycle
system.cpu0.commit.committed_per_cycle::5      7372080      0.31%     97.80% # Number of insts commited each cycle
system.cpu0.commit.committed_per_cycle::6      5490789      0.23%     98.04% # Number of insts commited each cycle
system.cpu0.commit.committed_per_cycle::7      4445943      0.19%     98.23% # Number of insts commited each cycle
system.cpu0.commit.committed_per_cycle::8     41595807      1.77%    100.00% # Number of insts commited each cycle
system.cpu0.commit.committed_per_cycle::overflows            0      0.00%    100.00% # Number of insts commited each cycle
system.cpu0.commit.committed_per_cycle::min_value            0                       # Number of insts commited each cycle
system.cpu0.commit.committed_per_cycle::max_value            8                       # Number of insts commited each cycle
system.cpu0.commit.committed_per_cycle::total   2346705064                       # Number of insts commited each cycle
system.cpu0.commit.fp_insts                        50                       # Number of committed floating point instructions.
system.cpu0.commit.function_calls            24112945                       # Number of function calls committed.
system.cpu0.commit.int_insts               1209808324                       # Number of committed integer instructions.
system.cpu0.commit.loads                    388697555                       # Number of loads committed
system.cpu0.commit.membars                    2104081                       # Number of memory barriers committed
system.cpu0.commit.op_class_0::No_OpClass      2104087      0.17%      0.17% # Class of committed instruction
system.cpu0.commit.op_class_0::IntAlu       699522739     55.89%     56.06% # Class of committed instruction
system.cpu0.commit.op_class_0::IntMult       11831882      0.95%     57.01% # Class of committed instruction
system.cpu0.commit.op_class_0::IntDiv         2099835      0.17%     57.17% # Class of committed instruction
system.cpu0.commit.op_class_0::FloatAdd             0      0.00%     57.17% # Class of committed instruction
system.cpu0.commit.op_class_0::FloatCmp             4      0.00%     57.17% # Class of committed instruction
system.cpu0.commit.op_class_0::FloatCvt            12      0.00%     57.17% # Class of committed instruction
system.cpu0.commit.op_class_0::FloatMult            0      0.00%     57.17% # Class of committed instruction
system.cpu0.commit.op_class_0::FloatMultAcc            0      0.00%     57.17% # Class of committed instruction
system.cpu0.commit.op_class_0::FloatDiv             2      0.00%     57.17% # Class of committed instruction
system.cpu0.commit.op_class_0::FloatMisc            4      0.00%     57.17% # Class of committed instruction
system.cpu0.commit.op_class_0::FloatSqrt            0      0.00%     57.17% # Class of committed instruction
system.cpu0.commit.op_class_0::SimdAdd              0      0.00%     57.17% # Class of committed instruction
system.cpu0.commit.op_class_0::SimdAddAcc            0      0.00%     57.17% # Class of committed instruction
system.cpu0.commit.op_class_0::SimdAlu              0      0.00%     57.17% # Class of committed instruction
system.cpu0.commit.op_class_0::SimdCmp              0      0.00%     57.17% # Class of committed instruction
system.cpu0.commit.op_class_0::SimdCvt              0      0.00%     57.17% # Class of committed instruction
system.cpu0.commit.op_class_0::SimdMisc             0      0.00%     57.17% # Class of committed instruction
system.cpu0.commit.op_class_0::SimdMult             0      0.00%     57.17% # Class of committed instruction
system.cpu0.commit.op_class_0::SimdMultAcc            0      0.00%     57.17% # Class of committed instruction
system.cpu0.commit.op_class_0::SimdShift            0      0.00%     57.17% # Class of committed instruction
system.cpu0.commit.op_class_0::SimdShiftAcc            0      0.00%     57.17% # Class of committed instruction
system.cpu0.commit.op_class_0::SimdDiv              0      0.00%     57.17% # Class of committed instruction
system.cpu0.commit.op_class_0::SimdSqrt             0      0.00%     57.17% # Class of committed instruction
system.cpu0.commit.op_class_0::SimdFloatAdd            0      0.00%     57.17% # Class of committed instruction
system.cpu0.commit.op_class_0::SimdFloatAlu            0      0.00%     57.17% # Class of committed instruction
system.cpu0.commit.op_class_0::SimdFloatCmp            0      0.00%     57.17% # Class of committed instruction
system.cpu0.commit.op_class_0::SimdFloatCvt            0      0.00%     57.17% # Class of committed instruction
system.cpu0.commit.op_class_0::SimdFloatDiv            0      0.00%     57.17% # Class of committed instruction
system.cpu0.commit.op_class_0::SimdFloatMisc            0      0.00%     57.17% # Class of committed instruction
system.cpu0.commit.op_class_0::SimdFloatMult            0      0.00%     57.17% # Class of committed instruction
system.cpu0.commit.op_class_0::SimdFloatMultAcc            0      0.00%     57.17% # Class of committed instruction
system.cpu0.commit.op_class_0::SimdFloatSqrt            0      0.00%     57.17% # Class of committed instruction
system.cpu0.commit.op_class_0::SimdReduceAdd            0      0.00%     57.17% # Class of committed instruction
system.cpu0.commit.op_class_0::SimdReduceAlu            0      0.00%     57.17% # Class of committed instruction
system.cpu0.commit.op_class_0::SimdReduceCmp            0      0.00%     57.17% # Class of committed instruction
system.cpu0.commit.op_class_0::SimdFloatReduceAdd            0      0.00%     57.17% # Class of committed instruction
system.cpu0.commit.op_class_0::SimdFloatReduceCmp            0      0.00%     57.17% # Class of committed instruction
system.cpu0.commit.op_class_0::SimdAes              0      0.00%     57.17% # Class of committed instruction
system.cpu0.commit.op_class_0::SimdAesMix            0      0.00%     57.17% # Class of committed instruction
system.cpu0.commit.op_class_0::SimdSha1Hash            0      0.00%     57.17% # Class of committed instruction
system.cpu0.commit.op_class_0::SimdSha1Hash2            0      0.00%     57.17% # Class of committed instruction
system.cpu0.commit.op_class_0::SimdSha256Hash            0      0.00%     57.17% # Class of committed instruction
system.cpu0.commit.op_class_0::SimdSha256Hash2            0      0.00%     57.17% # Class of committed instruction
system.cpu0.commit.op_class_0::SimdShaSigma2            0      0.00%     57.17% # Class of committed instruction
system.cpu0.commit.op_class_0::SimdShaSigma3            0      0.00%     57.17% # Class of committed instruction
system.cpu0.commit.op_class_0::SimdPredAlu            0      0.00%     57.17% # Class of committed instruction
system.cpu0.commit.op_class_0::MemRead      389748022     31.14%     88.31% # Class of committed instruction
system.cpu0.commit.op_class_0::MemWrite     146255460     11.69%    100.00% # Class of committed instruction
system.cpu0.commit.op_class_0::FloatMemRead            8      0.00%    100.00% # Class of committed instruction
system.cpu0.commit.op_class_0::FloatMemWrite           20      0.00%    100.00% # Class of committed instruction
system.cpu0.commit.op_class_0::IprAccess            0      0.00%    100.00% # Class of committed instruction
system.cpu0.commit.op_class_0::InstPrefetch            0      0.00%    100.00% # Class of committed instruction
system.cpu0.commit.op_class_0::total       1251562075                       # Class of committed instruction
system.cpu0.commit.refs                     536003510                       # Number of memory references committed
system.cpu0.commit.swp_count                        0                       # Number of s/w prefetches committed
system.cpu0.commit.vec_insts                        0                       # Number of committed Vector instructions.
system.cpu0.committedInsts                 1250508317                       # Number of Instructions Simulated
system.cpu0.committedOps                   1251562075                       # Number of Ops (including micro ops) Simulated
system.cpu0.cpi                              3.062631                       # CPI: Cycles Per Instruction
system.cpu0.cpi_total                        3.062631                       # CPI: Total CPI of All Threads
system.cpu0.decode.BlockedCycles            299261507                       # Number of cycles decode is blocked
system.cpu0.decode.BranchMispred              6113386                       # Number of times decode detected a branch misprediction
system.cpu0.decode.BranchResolved           168269230                       # Number of times decode resolved a branch
system.cpu0.decode.DecodedInsts            1336979443                       # Number of instructions handled by decode
system.cpu0.decode.IdleCycles              1120823552                       # Number of cycles decode is idle
system.cpu0.decode.RunCycles                926494316                       # Number of cycles decode is running
system.cpu0.decode.SquashCycles               9356130                       # Number of cycles decode is squashing
system.cpu0.decode.SquashedInsts             13214875                       # Number of squashed instructions handled by decode
system.cpu0.decode.UnblockCycles              4715978                       # Number of cycles decode is unblocking
system.cpu0.dtb.accesses                            0                       # DTB accesses
system.cpu0.dtb.hits                                0                       # DTB hits
system.cpu0.dtb.misses                              0                       # DTB misses
system.cpu0.dtb.read_accesses                       0                       # DTB read accesses
system.cpu0.dtb.read_hits                           0                       # DTB read hits
system.cpu0.dtb.read_misses                         0                       # DTB read misses
system.cpu0.dtb.write_accesses                      0                       # DTB write accesses
system.cpu0.dtb.write_hits                          0                       # DTB write hits
system.cpu0.dtb.write_misses                        0                       # DTB write misses
system.cpu0.fetch.Branches                  331394751                       # Number of branches that fetch encountered
system.cpu0.fetch.CacheLines                246074909                       # Number of cache lines fetched
system.cpu0.fetch.Cycles                   1245976011                       # Number of cycles fetch has run and was not squashing or blocked
system.cpu0.fetch.IcacheSquashes              4924259                       # Number of outstanding Icache misses that were squashed
system.cpu0.fetch.IcacheWaitRetryStallCycles           51                       # Number of stall cycles due to full MSHR
system.cpu0.fetch.Insts                    1365775768                       # Number of instructions fetch has processed
system.cpu0.fetch.MiscStallCycles                 109                       # Number of cycles fetch has spent waiting on interrupts, or bad addresses, or out of MSHRs
system.cpu0.fetch.PendingTrapStallCycles          620                       # Number of stall cycles due to pending traps
system.cpu0.fetch.SquashCycles               30888678                       # Number of cycles fetch has spent squashing
system.cpu0.fetch.branchRate                 0.086530                       # Number of branch fetches per cycle
system.cpu0.fetch.icacheStallCycles        1099230353                       # Number of cycles fetch is stalled on an Icache miss
system.cpu0.fetch.predictedBranches         190190098                       # Number of branches that fetch has predicted taken
system.cpu0.fetch.rate                       0.356614                       # Number of inst fetches per cycle
system.cpu0.fetch.rateDist::samples        2360651483                       # Number of instructions fetched each cycle (Total)
system.cpu0.fetch.rateDist::mean             0.579496                       # Number of instructions fetched each cycle (Total)
system.cpu0.fetch.rateDist::stdev            0.877535                       # Number of instructions fetched each cycle (Total)
system.cpu0.fetch.rateDist::underflows              0      0.00%      0.00% # Number of instructions fetched each cycle (Total)
system.cpu0.fetch.rateDist::0              1391451588     58.94%     58.94% # Number of instructions fetched each cycle (Total)
system.cpu0.fetch.rateDist::1               725742221     30.74%     89.69% # Number of instructions fetched each cycle (Total)
system.cpu0.fetch.rateDist::2               125376648      5.31%     95.00% # Number of instructions fetched each cycle (Total)
system.cpu0.fetch.rateDist::3                97757508      4.14%     99.14% # Number of instructions fetched each cycle (Total)
system.cpu0.fetch.rateDist::4                12192040      0.52%     99.66% # Number of instructions fetched each cycle (Total)
system.cpu0.fetch.rateDist::5                 3551516      0.15%     99.81% # Number of instructions fetched each cycle (Total)
system.cpu0.fetch.rateDist::6                  370075      0.02%     99.82% # Number of instructions fetched each cycle (Total)
system.cpu0.fetch.rateDist::7                 4205046      0.18%    100.00% # Number of instructions fetched each cycle (Total)
system.cpu0.fetch.rateDist::8                    4841      0.00%    100.00% # Number of instructions fetched each cycle (Total)
system.cpu0.fetch.rateDist::overflows               0      0.00%    100.00% # Number of instructions fetched each cycle (Total)
system.cpu0.fetch.rateDist::min_value               0                       # Number of instructions fetched each cycle (Total)
system.cpu0.fetch.rateDist::max_value               8                       # Number of instructions fetched each cycle (Total)
system.cpu0.fetch.rateDist::total          2360651483                       # Number of instructions fetched each cycle (Total)
system.cpu0.fp_regfile_reads                       44                       # number of floating regfile reads
system.cpu0.fp_regfile_writes                      23                       # number of floating regfile writes
system.cpu0.idleCycles                     1469194320                       # Total number of cycles that the CPU has spent unscheduled due to idling
system.cpu0.iew.branchMispredicts             9413409                       # Number of branch mispredicts detected at execute
system.cpu0.iew.exec_branches               320794928                       # Number of branches executed
system.cpu0.iew.exec_nop                            0                       # number of nop insts executed
system.cpu0.iew.exec_rate                    0.337762                       # Inst execution rate
system.cpu0.iew.exec_refs                   560488337                       # number of memory reference insts executed
system.cpu0.iew.exec_stores                 152090611                       # Number of stores executed
system.cpu0.iew.exec_swp                            0                       # number of swp insts executed
system.cpu0.iew.iewBlockCycles              213359289                       # Number of cycles IEW is blocking
system.cpu0.iew.iewDispLoadInsts            413330646                       # Number of dispatched load instructions
system.cpu0.iew.iewDispNonSpecInsts           1581539                       # Number of dispatched non-speculative instructions
system.cpu0.iew.iewDispSquashedInsts          5588996                       # Number of squashed instructions skipped by dispatch
system.cpu0.iew.iewDispStoreInsts           154193685                       # Number of dispatched store instructions
system.cpu0.iew.iewDispatchedInsts         1312890337                       # Number of instructions dispatched to IQ
system.cpu0.iew.iewExecLoadInsts            408397726                       # Number of load instructions executed
system.cpu0.iew.iewExecSquashedInsts          7089280                       # Number of squashed instructions skipped in execute
system.cpu0.iew.iewExecutedInsts           1293575946                       # Number of executed instructions
system.cpu0.iew.iewIQFullEvents               1063224                       # Number of times the IQ has become full, causing a stall
system.cpu0.iew.iewIdleCycles                       0                       # Number of cycles IEW is idle
system.cpu0.iew.iewLSQFullEvents             14341655                       # Number of times the LSQ has become full, causing a stall
system.cpu0.iew.iewSquashCycles               9356130                       # Number of cycles IEW is squashing
system.cpu0.iew.iewUnblockCycles             16704308                       # Number of cycles IEW is unblocking
system.cpu0.iew.lsq.thread0.blockedLoads            0                       # Number of blocked loads due to partial load-store forwarding
system.cpu0.iew.lsq.thread0.cacheBlocked       211311                       # Number of times an access to memory failed due to the cache being blocked
system.cpu0.iew.lsq.thread0.forwLoads        24560347                       # Number of loads that had data forwarded from stores
system.cpu0.iew.lsq.thread0.ignoredResponses        18091                       # Number of memory responses ignored because the instruction is squashed
system.cpu0.iew.lsq.thread0.invAddrLoads            0                       # Number of loads ignored due to an invalid address
system.cpu0.iew.lsq.thread0.invAddrSwpfs            0                       # Number of software prefetches ignored due to an invalid address
system.cpu0.iew.lsq.thread0.memOrderViolation         9471                       # Number of memory ordering violations
system.cpu0.iew.lsq.thread0.rescheduledLoads      4783834                       # Number of loads that were rescheduled
system.cpu0.iew.lsq.thread0.squashedLoads     24633091                       # Number of loads squashed
system.cpu0.iew.lsq.thread0.squashedStores      6887730                       # Number of stores squashed
system.cpu0.iew.memOrderViolationEvents          9471                       # Number of memory order violations
system.cpu0.iew.predictedNotTakenIncorrect       414625                       # Number of branches that were predicted not taken incorrectly
system.cpu0.iew.predictedTakenIncorrect       8998784                       # Number of branches that were predicted taken incorrectly
system.cpu0.iew.wb_consumers                579179658                       # num instructions consuming a value
system.cpu0.iew.wb_count                   1284533607                       # cumulative count of insts written-back
system.cpu0.iew.wb_fanout                    0.857383                       # average fanout of values written-back
system.cpu0.iew.wb_producers                496578860                       # num instructions producing a value
system.cpu0.iew.wb_rate                      0.335401                       # insts written-back per cycle
system.cpu0.iew.wb_sent                    1284604237                       # cumulative count of insts sent to commit
system.cpu0.int_regfile_reads              1587335600                       # number of integer regfile reads
system.cpu0.int_regfile_writes              822158955                       # number of integer regfile writes
system.cpu0.ipc                              0.326517                       # IPC: Instructions Per Cycle
system.cpu0.ipc_total                        0.326517                       # IPC: Total IPC of All Threads
system.cpu0.iq.FU_type_0::No_OpClass          2106222      0.16%      0.16% # Type of FU issued
system.cpu0.iq.FU_type_0::IntAlu            719826268     55.34%     55.50% # Type of FU issued
system.cpu0.iq.FU_type_0::IntMult            11832751      0.91%     56.41% # Type of FU issued
system.cpu0.iq.FU_type_0::IntDiv              2100419      0.16%     56.58% # Type of FU issued
system.cpu0.iq.FU_type_0::FloatAdd                  0      0.00%     56.58% # Type of FU issued
system.cpu0.iq.FU_type_0::FloatCmp                  4      0.00%     56.58% # Type of FU issued
system.cpu0.iq.FU_type_0::FloatCvt                 12      0.00%     56.58% # Type of FU issued
system.cpu0.iq.FU_type_0::FloatMult                 0      0.00%     56.58% # Type of FU issued
system.cpu0.iq.FU_type_0::FloatMultAcc              0      0.00%     56.58% # Type of FU issued
system.cpu0.iq.FU_type_0::FloatDiv                  2      0.00%     56.58% # Type of FU issued
system.cpu0.iq.FU_type_0::FloatMisc                 4      0.00%     56.58% # Type of FU issued
system.cpu0.iq.FU_type_0::FloatSqrt                 0      0.00%     56.58% # Type of FU issued
system.cpu0.iq.FU_type_0::SimdAdd                   0      0.00%     56.58% # Type of FU issued
system.cpu0.iq.FU_type_0::SimdAddAcc                0      0.00%     56.58% # Type of FU issued
system.cpu0.iq.FU_type_0::SimdAlu                   0      0.00%     56.58% # Type of FU issued
system.cpu0.iq.FU_type_0::SimdCmp                   0      0.00%     56.58% # Type of FU issued
system.cpu0.iq.FU_type_0::SimdCvt                   0      0.00%     56.58% # Type of FU issued
system.cpu0.iq.FU_type_0::SimdMisc                  0      0.00%     56.58% # Type of FU issued
system.cpu0.iq.FU_type_0::SimdMult                  0      0.00%     56.58% # Type of FU issued
system.cpu0.iq.FU_type_0::SimdMultAcc               0      0.00%     56.58% # Type of FU issued
system.cpu0.iq.FU_type_0::SimdShift                 0      0.00%     56.58% # Type of FU issued
system.cpu0.iq.FU_type_0::SimdShiftAcc              0      0.00%     56.58% # Type of FU issued
system.cpu0.iq.FU_type_0::SimdDiv                   0      0.00%     56.58% # Type of FU issued
system.cpu0.iq.FU_type_0::SimdSqrt                  0      0.00%     56.58% # Type of FU issued
system.cpu0.iq.FU_type_0::SimdFloatAdd              0      0.00%     56.58% # Type of FU issued
system.cpu0.iq.FU_type_0::SimdFloatAlu              0      0.00%     56.58% # Type of FU issued
system.cpu0.iq.FU_type_0::SimdFloatCmp              0      0.00%     56.58% # Type of FU issued
system.cpu0.iq.FU_type_0::SimdFloatCvt              0      0.00%     56.58% # Type of FU issued
system.cpu0.iq.FU_type_0::SimdFloatDiv              0      0.00%     56.58% # Type of FU issued
system.cpu0.iq.FU_type_0::SimdFloatMisc             0      0.00%     56.58% # Type of FU issued
system.cpu0.iq.FU_type_0::SimdFloatMult             0      0.00%     56.58% # Type of FU issued
system.cpu0.iq.FU_type_0::SimdFloatMultAcc            0      0.00%     56.58% # Type of FU issued
system.cpu0.iq.FU_type_0::SimdFloatSqrt             0      0.00%     56.58% # Type of FU issued
system.cpu0.iq.FU_type_0::SimdReduceAdd             0      0.00%     56.58% # Type of FU issued
system.cpu0.iq.FU_type_0::SimdReduceAlu             0      0.00%     56.58% # Type of FU issued
system.cpu0.iq.FU_type_0::SimdReduceCmp             0      0.00%     56.58% # Type of FU issued
system.cpu0.iq.FU_type_0::SimdFloatReduceAdd            0      0.00%     56.58% # Type of FU issued
system.cpu0.iq.FU_type_0::SimdFloatReduceCmp            0      0.00%     56.58% # Type of FU issued
system.cpu0.iq.FU_type_0::SimdAes                   0      0.00%     56.58% # Type of FU issued
system.cpu0.iq.FU_type_0::SimdAesMix                0      0.00%     56.58% # Type of FU issued
system.cpu0.iq.FU_type_0::SimdSha1Hash              0      0.00%     56.58% # Type of FU issued
system.cpu0.iq.FU_type_0::SimdSha1Hash2             0      0.00%     56.58% # Type of FU issued
system.cpu0.iq.FU_type_0::SimdSha256Hash            0      0.00%     56.58% # Type of FU issued
system.cpu0.iq.FU_type_0::SimdSha256Hash2            0      0.00%     56.58% # Type of FU issued
system.cpu0.iq.FU_type_0::SimdShaSigma2             0      0.00%     56.58% # Type of FU issued
system.cpu0.iq.FU_type_0::SimdShaSigma3             0      0.00%     56.58% # Type of FU issued
system.cpu0.iq.FU_type_0::SimdPredAlu               0      0.00%     56.58% # Type of FU issued
system.cpu0.iq.FU_type_0::MemRead           413402986     31.78%     88.36% # Type of FU issued
system.cpu0.iq.FU_type_0::MemWrite          151396530     11.64%    100.00% # Type of FU issued
system.cpu0.iq.FU_type_0::FloatMemRead              9      0.00%    100.00% # Type of FU issued
system.cpu0.iq.FU_type_0::FloatMemWrite            20      0.00%    100.00% # Type of FU issued
system.cpu0.iq.FU_type_0::IprAccess                 0      0.00%    100.00% # Type of FU issued
system.cpu0.iq.FU_type_0::InstPrefetch              0      0.00%    100.00% # Type of FU issued
system.cpu0.iq.FU_type_0::total            1300665227                       # Type of FU issued
system.cpu0.iq.fp_alu_accesses                     53                       # Number of floating point alu accesses
system.cpu0.iq.fp_inst_queue_reads                104                       # Number of floating instruction queue reads
system.cpu0.iq.fp_inst_queue_wakeup_accesses           51                       # Number of floating instruction queue wakeup accesses
system.cpu0.iq.fp_inst_queue_writes                52                       # Number of floating instruction queue writes
system.cpu0.iq.fu_busy_cnt                    3717747                       # FU busy when requested
system.cpu0.iq.fu_busy_rate                  0.002858                       # FU busy rate (busy events/executed inst)
system.cpu0.iq.fu_full::No_OpClass                  0      0.00%      0.00% # attempts to use FU when none available
system.cpu0.iq.fu_full::IntAlu                 375279     10.09%     10.09% # attempts to use FU when none available
system.cpu0.iq.fu_full::IntMult                     0      0.00%     10.09% # attempts to use FU when none available
system.cpu0.iq.fu_full::IntDiv                      0      0.00%     10.09% # attempts to use FU when none available
system.cpu0.iq.fu_full::FloatAdd                    0      0.00%     10.09% # attempts to use FU when none available
system.cpu0.iq.fu_full::FloatCmp                    0      0.00%     10.09% # attempts to use FU when none available
system.cpu0.iq.fu_full::FloatCvt                    0      0.00%     10.09% # attempts to use FU when none available
system.cpu0.iq.fu_full::FloatMult                   0      0.00%     10.09% # attempts to use FU when none available
system.cpu0.iq.fu_full::FloatMultAcc                0      0.00%     10.09% # attempts to use FU when none available
system.cpu0.iq.fu_full::FloatDiv                    0      0.00%     10.09% # attempts to use FU when none available
system.cpu0.iq.fu_full::FloatMisc                   0      0.00%     10.09% # attempts to use FU when none available
system.cpu0.iq.fu_full::FloatSqrt                   0      0.00%     10.09% # attempts to use FU when none available
system.cpu0.iq.fu_full::SimdAdd                     0      0.00%     10.09% # attempts to use FU when none available
system.cpu0.iq.fu_full::SimdAddAcc                  0      0.00%     10.09% # attempts to use FU when none available
system.cpu0.iq.fu_full::SimdAlu                     0      0.00%     10.09% # attempts to use FU when none available
system.cpu0.iq.fu_full::SimdCmp                     0      0.00%     10.09% # attempts to use FU when none available
system.cpu0.iq.fu_full::SimdCvt                     0      0.00%     10.09% # attempts to use FU when none available
system.cpu0.iq.fu_full::SimdMisc                    0      0.00%     10.09% # attempts to use FU when none available
system.cpu0.iq.fu_full::SimdMult                    0      0.00%     10.09% # attempts to use FU when none available
system.cpu0.iq.fu_full::SimdMultAcc                 0      0.00%     10.09% # attempts to use FU when none available
system.cpu0.iq.fu_full::SimdShift                   0      0.00%     10.09% # attempts to use FU when none available
system.cpu0.iq.fu_full::SimdShiftAcc                0      0.00%     10.09% # attempts to use FU when none available
system.cpu0.iq.fu_full::SimdDiv                     0      0.00%     10.09% # attempts to use FU when none available
system.cpu0.iq.fu_full::SimdSqrt                    0      0.00%     10.09% # attempts to use FU when none available
system.cpu0.iq.fu_full::SimdFloatAdd                0      0.00%     10.09% # attempts to use FU when none available
system.cpu0.iq.fu_full::SimdFloatAlu                0      0.00%     10.09% # attempts to use FU when none available
system.cpu0.iq.fu_full::SimdFloatCmp                0      0.00%     10.09% # attempts to use FU when none available
system.cpu0.iq.fu_full::SimdFloatCvt                0      0.00%     10.09% # attempts to use FU when none available
system.cpu0.iq.fu_full::SimdFloatDiv                0      0.00%     10.09% # attempts to use FU when none available
system.cpu0.iq.fu_full::SimdFloatMisc               0      0.00%     10.09% # attempts to use FU when none available
system.cpu0.iq.fu_full::SimdFloatMult               0      0.00%     10.09% # attempts to use FU when none available
system.cpu0.iq.fu_full::SimdFloatMultAcc            0      0.00%     10.09% # attempts to use FU when none available
system.cpu0.iq.fu_full::SimdFloatSqrt               0      0.00%     10.09% # attempts to use FU when none available
system.cpu0.iq.fu_full::SimdReduceAdd               0      0.00%     10.09% # attempts to use FU when none available
system.cpu0.iq.fu_full::SimdReduceAlu               0      0.00%     10.09% # attempts to use FU when none available
system.cpu0.iq.fu_full::SimdReduceCmp               0      0.00%     10.09% # attempts to use FU when none available
system.cpu0.iq.fu_full::SimdFloatReduceAdd            0      0.00%     10.09% # attempts to use FU when none available
system.cpu0.iq.fu_full::SimdFloatReduceCmp            0      0.00%     10.09% # attempts to use FU when none available
system.cpu0.iq.fu_full::SimdAes                     0      0.00%     10.09% # attempts to use FU when none available
system.cpu0.iq.fu_full::SimdAesMix                  0      0.00%     10.09% # attempts to use FU when none available
system.cpu0.iq.fu_full::SimdSha1Hash                0      0.00%     10.09% # attempts to use FU when none available
system.cpu0.iq.fu_full::SimdSha1Hash2               0      0.00%     10.09% # attempts to use FU when none available
system.cpu0.iq.fu_full::SimdSha256Hash              0      0.00%     10.09% # attempts to use FU when none available
system.cpu0.iq.fu_full::SimdSha256Hash2             0      0.00%     10.09% # attempts to use FU when none available
system.cpu0.iq.fu_full::SimdShaSigma2               0      0.00%     10.09% # attempts to use FU when none available
system.cpu0.iq.fu_full::SimdShaSigma3               0      0.00%     10.09% # attempts to use FU when none available
system.cpu0.iq.fu_full::SimdPredAlu                 0      0.00%     10.09% # attempts to use FU when none available
system.cpu0.iq.fu_full::MemRead               3073118     82.66%     92.76% # attempts to use FU when none available
system.cpu0.iq.fu_full::MemWrite               269348      7.24%    100.00% # attempts to use FU when none available
system.cpu0.iq.fu_full::FloatMemRead                0      0.00%    100.00% # attempts to use FU when none available
system.cpu0.iq.fu_full::FloatMemWrite               2      0.00%    100.00% # attempts to use FU when none available
system.cpu0.iq.fu_full::IprAccess                   0      0.00%    100.00% # attempts to use FU when none available
system.cpu0.iq.fu_full::InstPrefetch                0      0.00%    100.00% # attempts to use FU when none available
system.cpu0.iq.int_alu_accesses            1302276699                       # Number of integer alu accesses
system.cpu0.iq.int_inst_queue_reads        4965838467                       # Number of integer instruction queue reads
system.cpu0.iq.int_inst_queue_wakeup_accesses   1284533556                       # Number of integer instruction queue wakeup accesses
system.cpu0.iq.int_inst_queue_writes       1374227750                       # Number of integer instruction queue writes
system.cpu0.iq.iqInstsAdded                1308155229                       # Number of instructions added to the IQ (excludes non-spec)
system.cpu0.iq.iqInstsIssued               1300665227                       # Number of instructions issued
system.cpu0.iq.iqNonSpecInstsAdded            4735108                       # Number of non-speculative instructions added to the IQ
system.cpu0.iq.iqSquashedInstsExamined       61328258                       # Number of squashed instructions iterated over during squash; mainly for profiling
system.cpu0.iq.iqSquashedInstsIssued           138888                       # Number of squashed instructions issued
system.cpu0.iq.iqSquashedNonSpecRemoved       1574459                       # Number of squashed non-spec instructions that were removed
system.cpu0.iq.iqSquashedOperandsExamined     30099429                       # Number of squashed operands that are examined and possibly removed from graph
system.cpu0.iq.issued_per_cycle::samples   2360651483                       # Number of insts issued each cycle
system.cpu0.iq.issued_per_cycle::mean        0.550977                       # Number of insts issued each cycle
system.cpu0.iq.issued_per_cycle::stdev       0.813324                       # Number of insts issued each cycle
system.cpu0.iq.issued_per_cycle::underflows            0      0.00%      0.00% # Number of insts issued each cycle
system.cpu0.iq.issued_per_cycle::0         1420170822     60.16%     60.16% # Number of insts issued each cycle
system.cpu0.iq.issued_per_cycle::1          669237223     28.35%     88.51% # Number of insts issued each cycle
system.cpu0.iq.issued_per_cycle::2          210621659      8.92%     97.43% # Number of insts issued each cycle
system.cpu0.iq.issued_per_cycle::3           40103538      1.70%     99.13% # Number of insts issued each cycle
system.cpu0.iq.issued_per_cycle::4           15291903      0.65%     99.78% # Number of insts issued each cycle
system.cpu0.iq.issued_per_cycle::5            3406128      0.14%     99.92% # Number of insts issued each cycle
system.cpu0.iq.issued_per_cycle::6            1256655      0.05%     99.98% # Number of insts issued each cycle
system.cpu0.iq.issued_per_cycle::7             372550      0.02%     99.99% # Number of insts issued each cycle
system.cpu0.iq.issued_per_cycle::8             191005      0.01%    100.00% # Number of insts issued each cycle
system.cpu0.iq.issued_per_cycle::overflows            0      0.00%    100.00% # Number of insts issued each cycle
system.cpu0.iq.issued_per_cycle::min_value            0                       # Number of insts issued each cycle
system.cpu0.iq.issued_per_cycle::max_value            8                       # Number of insts issued each cycle
system.cpu0.iq.issued_per_cycle::total     2360651483                       # Number of insts issued each cycle
system.cpu0.iq.rate                          0.339613                       # Inst issue rate
system.cpu0.iq.vec_alu_accesses                     0                       # Number of vector alu accesses
system.cpu0.iq.vec_inst_queue_reads                 0                       # Number of vector instruction queue reads
system.cpu0.iq.vec_inst_queue_wakeup_accesses            0                       # Number of vector instruction queue wakeup accesses
system.cpu0.iq.vec_inst_queue_writes                0                       # Number of vector instruction queue writes
system.cpu0.itb.accesses                            0                       # DTB accesses
system.cpu0.itb.hits                                0                       # DTB hits
system.cpu0.itb.misses                              0                       # DTB misses
system.cpu0.itb.read_accesses                       0                       # DTB read accesses
system.cpu0.itb.read_hits                           0                       # DTB read hits
system.cpu0.itb.read_misses                         0                       # DTB read misses
system.cpu0.itb.write_accesses                      0                       # DTB write accesses
system.cpu0.itb.write_hits                          0                       # DTB write hits
system.cpu0.itb.write_misses                        0                       # DTB write misses
system.cpu0.memDep0.conflictingLoads         25656091                       # Number of conflicting loads.
system.cpu0.memDep0.conflictingStores         4114732                       # Number of conflicting stores.
system.cpu0.memDep0.insertedLoads           413330646                       # Number of loads inserted to the mem dependence unit.
system.cpu0.memDep0.insertedStores          154193685                       # Number of stores inserted to the mem dependence unit.
system.cpu0.misc_regfile_reads                   2064                       # number of misc regfile reads
system.cpu0.misc_regfile_writes                    22                       # number of misc regfile writes
system.cpu0.numCycles                      3829845803                       # number of cpu cycles simulated
system.cpu0.numWorkItemsCompleted                   0                       # number of work items this cpu completed
system.cpu0.numWorkItemsStarted                     0                       # number of work items this cpu started
system.cpu0.quiesceCycles                     9744606                       # Total number of cycles that CPU has spent quiesced or waiting for an interrupt
system.cpu0.rename.BlockCycles              238456206                       # Number of cycles rename is blocking
system.cpu0.rename.CommittedMaps            800535666                       # Number of HB maps that are committed
system.cpu0.rename.IQFullEvents               8661064                       # Number of times rename has blocked due to IQ full
system.cpu0.rename.IdleCycles              1134343022                       # Number of cycles rename is idle
system.cpu0.rename.LQFullEvents              24214532                       # Number of times rename has blocked due to LQ full
system.cpu0.rename.ROBFullEvents                 9794                       # Number of times rename has blocked due to ROB full
system.cpu0.rename.RenameLookups           1625259083                       # Number of register rename lookups that rename has made
system.cpu0.rename.RenamedInsts            1326358862                       # Number of instructions processed by rename
system.cpu0.rename.RenamedOperands          856431913                       # Number of destination operands rename has renamed
system.cpu0.rename.RunCycles                916455780                       # Number of cycles rename is running
system.cpu0.rename.SQFullEvents              29173060                       # Number of times rename has blocked due to SQ full
system.cpu0.rename.SquashCycles               9356130                       # Number of cycles rename is squashing
system.cpu0.rename.UnblockCycles             61878383                       # Number of cycles rename is unblocking
system.cpu0.rename.UndoneMaps                55896242                       # Number of HB maps that are undone due to squashing
system.cpu0.rename.fp_rename_lookups               44                       # Number of floating rename lookups
system.cpu0.rename.int_rename_lookups      1625259039                       # Number of integer rename lookups
system.cpu0.rename.serializeStallCycles        161962                       # count of cycles rename stalled for serializing inst
system.cpu0.rename.serializingInsts              6248                       # count of serializing insts renamed
system.cpu0.rename.skidInsts                 18410565                       # count of insts added to the skid buffer
system.cpu0.rename.tempSerializingInsts          6197                       # count of temporary serializing insts renamed
system.cpu0.rob.rob_reads                  3618003794                       # The number of ROB reads
system.cpu0.rob.rob_writes                 2639809487                       # The number of ROB writes
system.cpu0.timesIdled                       43107516                       # Number of times that the entire CPU went into an idle state and unscheduled itself
system.cpu0.workload.numSyscalls                 2031                       # Number of system calls
system.cpu1.branchPred.BTBCorrect                   0                       # Number of correct BTB predictions (this stat may not work properly.
system.cpu1.branchPred.BTBHitPct            85.145860                       # BTB Hit Percentage
system.cpu1.branchPred.BTBHits               12409849                       # Number of BTB hits
system.cpu1.branchPred.BTBLookups            14574812                       # Number of BTB lookups
system.cpu1.branchPred.RASInCorrect                 0                       # Number of incorrect RAS predictions.
system.cpu1.branchPred.condIncorrect          1801446                       # Number of conditional branches incorrect
system.cpu1.branchPred.condPredicted         18281052                       # Number of conditional branches predicted
system.cpu1.branchPred.indirectHits            663132                       # Number of indirect target hits.
system.cpu1.branchPred.indirectLookups         676753                       # Number of indirect predictor lookups.
system.cpu1.branchPred.indirectMisses           13621                       # Number of indirect misses.
system.cpu1.branchPred.lookups               21320569                       # Number of BP lookups
system.cpu1.branchPred.usedRAS                      0                       # Number of times the RAS was used to get a target.
system.cpu1.branchPredindirectMispredicted        41804                       # Number of mispredicted indirect branches.
system.cpu1.commit.amos                       1050234                       # Number of atomic instructions committed
system.cpu1.commit.branchMispredicts          1333556                       # The number of times a branch was mispredicted
system.cpu1.commit.branches                  16228765                       # Number of branches committed
system.cpu1.commit.bw_lim_events              2296756                       # number cycles where commit BW limit reached
system.cpu1.commit.commitNonSpecStalls        3151424                       # The number of times commit has been forced to stall to communicate backwards
system.cpu1.commit.commitSquashedInsts       11686483                       # The number of squashed insts skipped by commit
system.cpu1.commit.committedInsts            67679857                       # Number of instructions committed
system.cpu1.commit.committedOps              68730298                       # Number of ops (including micro ops) committed
system.cpu1.commit.committed_per_cycle::samples    307403036                       # Number of insts commited each cycle
system.cpu1.commit.committed_per_cycle::mean     0.223584                       # Number of insts commited each cycle
system.cpu1.commit.committed_per_cycle::stdev     0.950524                       # Number of insts commited each cycle
system.cpu1.commit.committed_per_cycle::underflows            0      0.00%      0.00% # Number of insts commited each cycle
system.cpu1.commit.committed_per_cycle::0    279209299     90.83%     90.83% # Number of insts commited each cycle
system.cpu1.commit.committed_per_cycle::1     14002710      4.56%     95.38% # Number of insts commited each cycle
system.cpu1.commit.committed_per_cycle::2      5198931      1.69%     97.07% # Number of insts commited each cycle
system.cpu1.commit.committed_per_cycle::3      4066250      1.32%     98.40% # Number of insts commited each cycle
system.cpu1.commit.committed_per_cycle::4       905430      0.29%     98.69% # Number of insts commited each cycle
system.cpu1.commit.committed_per_cycle::5       433350      0.14%     98.83% # Number of insts commited each cycle
system.cpu1.commit.committed_per_cycle::6      1063712      0.35%     99.18% # Number of insts commited each cycle
system.cpu1.commit.committed_per_cycle::7       226598      0.07%     99.25% # Number of insts commited each cycle
system.cpu1.commit.committed_per_cycle::8      2296756      0.75%    100.00% # Number of insts commited each cycle
system.cpu1.commit.committed_per_cycle::overflows            0      0.00%    100.00% # Number of insts commited each cycle
system.cpu1.commit.committed_per_cycle::min_value            0                       # Number of insts commited each cycle
system.cpu1.commit.committed_per_cycle::max_value            8                       # Number of insts commited each cycle
system.cpu1.commit.committed_per_cycle::total    307403036                       # Number of insts commited each cycle
system.cpu1.commit.fp_insts                        12                       # Number of committed floating point instructions.
system.cpu1.commit.function_calls             1074895                       # Number of function calls committed.
system.cpu1.commit.int_insts                 65714892                       # Number of committed integer instructions.
system.cpu1.commit.loads                     16751990                       # Number of loads committed
system.cpu1.commit.membars                    2100534                       # Number of memory barriers committed
system.cpu1.commit.op_class_0::No_OpClass      2100534      3.06%      3.06% # Class of committed instruction
system.cpu1.commit.op_class_0::IntAlu        43602448     63.44%     66.50% # Class of committed instruction
system.cpu1.commit.op_class_0::IntMult             44      0.00%     66.50% # Class of committed instruction
system.cpu1.commit.op_class_0::IntDiv              88      0.00%     66.50% # Class of committed instruction
system.cpu1.commit.op_class_0::FloatAdd             0      0.00%     66.50% # Class of committed instruction
system.cpu1.commit.op_class_0::FloatCmp             0      0.00%     66.50% # Class of committed instruction
system.cpu1.commit.op_class_0::FloatCvt             0      0.00%     66.50% # Class of committed instruction
system.cpu1.commit.op_class_0::FloatMult            0      0.00%     66.50% # Class of committed instruction
system.cpu1.commit.op_class_0::FloatMultAcc            0      0.00%     66.50% # Class of committed instruction
system.cpu1.commit.op_class_0::FloatDiv             0      0.00%     66.50% # Class of committed instruction
system.cpu1.commit.op_class_0::FloatMisc            0      0.00%     66.50% # Class of committed instruction
system.cpu1.commit.op_class_0::FloatSqrt            0      0.00%     66.50% # Class of committed instruction
system.cpu1.commit.op_class_0::SimdAdd              0      0.00%     66.50% # Class of committed instruction
system.cpu1.commit.op_class_0::SimdAddAcc            0      0.00%     66.50% # Class of committed instruction
system.cpu1.commit.op_class_0::SimdAlu              0      0.00%     66.50% # Class of committed instruction
system.cpu1.commit.op_class_0::SimdCmp              0      0.00%     66.50% # Class of committed instruction
system.cpu1.commit.op_class_0::SimdCvt              0      0.00%     66.50% # Class of committed instruction
system.cpu1.commit.op_class_0::SimdMisc             0      0.00%     66.50% # Class of committed instruction
system.cpu1.commit.op_class_0::SimdMult             0      0.00%     66.50% # Class of committed instruction
system.cpu1.commit.op_class_0::SimdMultAcc            0      0.00%     66.50% # Class of committed instruction
system.cpu1.commit.op_class_0::SimdShift            0      0.00%     66.50% # Class of committed instruction
system.cpu1.commit.op_class_0::SimdShiftAcc            0      0.00%     66.50% # Class of committed instruction
system.cpu1.commit.op_class_0::SimdDiv              0      0.00%     66.50% # Class of committed instruction
system.cpu1.commit.op_class_0::SimdSqrt             0      0.00%     66.50% # Class of committed instruction
system.cpu1.commit.op_class_0::SimdFloatAdd            0      0.00%     66.50% # Class of committed instruction
system.cpu1.commit.op_class_0::SimdFloatAlu            0      0.00%     66.50% # Class of committed instruction
system.cpu1.commit.op_class_0::SimdFloatCmp            0      0.00%     66.50% # Class of committed instruction
system.cpu1.commit.op_class_0::SimdFloatCvt            0      0.00%     66.50% # Class of committed instruction
system.cpu1.commit.op_class_0::SimdFloatDiv            0      0.00%     66.50% # Class of committed instruction
system.cpu1.commit.op_class_0::SimdFloatMisc            0      0.00%     66.50% # Class of committed instruction
system.cpu1.commit.op_class_0::SimdFloatMult            0      0.00%     66.50% # Class of committed instruction
system.cpu1.commit.op_class_0::SimdFloatMultAcc            0      0.00%     66.50% # Class of committed instruction
system.cpu1.commit.op_class_0::SimdFloatSqrt            0      0.00%     66.50% # Class of committed instruction
system.cpu1.commit.op_class_0::SimdReduceAdd            0      0.00%     66.50% # Class of committed instruction
system.cpu1.commit.op_class_0::SimdReduceAlu            0      0.00%     66.50% # Class of committed instruction
system.cpu1.commit.op_class_0::SimdReduceCmp            0      0.00%     66.50% # Class of committed instruction
system.cpu1.commit.op_class_0::SimdFloatReduceAdd            0      0.00%     66.50% # Class of committed instruction
system.cpu1.commit.op_class_0::SimdFloatReduceCmp            0      0.00%     66.50% # Class of committed instruction
system.cpu1.commit.op_class_0::SimdAes              0      0.00%     66.50% # Class of committed instruction
system.cpu1.commit.op_class_0::SimdAesMix            0      0.00%     66.50% # Class of committed instruction
system.cpu1.commit.op_class_0::SimdSha1Hash            0      0.00%     66.50% # Class of committed instruction
system.cpu1.commit.op_class_0::SimdSha1Hash2            0      0.00%     66.50% # Class of committed instruction
system.cpu1.commit.op_class_0::SimdSha256Hash            0      0.00%     66.50% # Class of committed instruction
system.cpu1.commit.op_class_0::SimdSha256Hash2            0      0.00%     66.50% # Class of committed instruction
system.cpu1.commit.op_class_0::SimdShaSigma2            0      0.00%     66.50% # Class of committed instruction
system.cpu1.commit.op_class_0::SimdShaSigma3            0      0.00%     66.50% # Class of committed instruction
system.cpu1.commit.op_class_0::SimdPredAlu            0      0.00%     66.50% # Class of committed instruction
system.cpu1.commit.op_class_0::MemRead       17802224     25.90%     92.40% # Class of committed instruction
system.cpu1.commit.op_class_0::MemWrite       5224948      7.60%    100.00% # Class of committed instruction
system.cpu1.commit.op_class_0::FloatMemRead            0      0.00%    100.00% # Class of committed instruction
system.cpu1.commit.op_class_0::FloatMemWrite           12      0.00%    100.00% # Class of committed instruction
system.cpu1.commit.op_class_0::IprAccess            0      0.00%    100.00% # Class of committed instruction
system.cpu1.commit.op_class_0::InstPrefetch            0      0.00%    100.00% # Class of committed instruction
system.cpu1.commit.op_class_0::total         68730298                       # Class of committed instruction
system.cpu1.commit.refs                      23027184                       # Number of memory references committed
system.cpu1.commit.swp_count                        0                       # Number of s/w prefetches committed
system.cpu1.commit.vec_insts                        0                       # Number of committed Vector instructions.
system.cpu1.committedInsts                   67679857                       # Number of Instructions Simulated
system.cpu1.committedOps                     68730298                       # Number of Ops (including micro ops) Simulated
system.cpu1.cpi                              4.586356                       # CPI: Cycles Per Instruction
system.cpu1.cpi_total                        4.586356                       # CPI: Total CPI of All Threads
system.cpu1.decode.BlockedCycles            249547843                       # Number of cycles decode is blocked
system.cpu1.decode.BranchMispred               500599                       # Number of times decode detected a branch misprediction
system.cpu1.decode.BranchResolved            11806772                       # Number of times decode resolved a branch
system.cpu1.decode.DecodedInsts              84953729                       # Number of instructions handled by decode
system.cpu1.decode.IdleCycles                16713075                       # Number of cycles decode is idle
system.cpu1.decode.RunCycles                 39384961                       # Number of cycles decode is running
system.cpu1.decode.SquashCycles               1335003                       # Number of cycles decode is squashing
system.cpu1.decode.SquashedInsts              1206807                       # Number of squashed instructions handled by decode
system.cpu1.decode.UnblockCycles              2778361                       # Number of cycles decode is unblocking
system.cpu1.dtb.accesses                            0                       # DTB accesses
system.cpu1.dtb.hits                                0                       # DTB hits
system.cpu1.dtb.misses                              0                       # DTB misses
system.cpu1.dtb.read_accesses                       0                       # DTB read accesses
system.cpu1.dtb.read_hits                           0                       # DTB read hits
system.cpu1.dtb.read_misses                         0                       # DTB read misses
system.cpu1.dtb.write_accesses                      0                       # DTB write accesses
system.cpu1.dtb.write_hits                          0                       # DTB write hits
system.cpu1.dtb.write_misses                        0                       # DTB write misses
system.cpu1.fetch.Branches                   21320569                       # Number of branches that fetch encountered
system.cpu1.fetch.CacheLines                 14343847                       # Number of cache lines fetched
system.cpu1.fetch.Cycles                    292165684                       # Number of cycles fetch has run and was not squashing or blocked
system.cpu1.fetch.IcacheSquashes               164003                       # Number of outstanding Icache misses that were squashed
system.cpu1.fetch.Insts                      88544856                       # Number of instructions fetch has processed
system.cpu1.fetch.MiscStallCycles                   1                       # Number of cycles fetch has spent waiting on interrupts, or bad addresses, or out of MSHRs
system.cpu1.fetch.SquashCycles                3605786                       # Number of cycles fetch has spent squashing
system.cpu1.fetch.branchRate                 0.068687                       # Number of branch fetches per cycle
system.cpu1.fetch.icacheStallCycles          15790665                       # Number of cycles fetch is stalled on an Icache miss
system.cpu1.fetch.predictedBranches          13072981                       # Number of branches that fetch has predicted taken
system.cpu1.fetch.rate                       0.285257                       # Number of inst fetches per cycle
system.cpu1.fetch.rateDist::samples         309759243                       # Number of instructions fetched each cycle (Total)
system.cpu1.fetch.rateDist::mean             0.289245                       # Number of instructions fetched each cycle (Total)
system.cpu1.fetch.rateDist::stdev            0.718249                       # Number of instructions fetched each cycle (Total)
system.cpu1.fetch.rateDist::underflows              0      0.00%      0.00% # Number of instructions fetched each cycle (Total)
system.cpu1.fetch.rateDist::0               252903554     81.65%     81.65% # Number of instructions fetched each cycle (Total)
system.cpu1.fetch.rateDist::1                36029951     11.63%     93.28% # Number of instructions fetched each cycle (Total)
system.cpu1.fetch.rateDist::2                11593822      3.74%     97.02% # Number of instructions fetched each cycle (Total)
system.cpu1.fetch.rateDist::3                 7200425      2.32%     99.34% # Number of instructions fetched each cycle (Total)
system.cpu1.fetch.rateDist::4                 1443044      0.47%     99.81% # Number of instructions fetched each cycle (Total)
system.cpu1.fetch.rateDist::5                  530534      0.17%     99.98% # Number of instructions fetched each cycle (Total)
system.cpu1.fetch.rateDist::6                   54603      0.02%    100.00% # Number of instructions fetched each cycle (Total)
system.cpu1.fetch.rateDist::7                    1634      0.00%    100.00% # Number of instructions fetched each cycle (Total)
system.cpu1.fetch.rateDist::8                    1676      0.00%    100.00% # Number of instructions fetched each cycle (Total)
system.cpu1.fetch.rateDist::overflows               0      0.00%    100.00% # Number of instructions fetched each cycle (Total)
system.cpu1.fetch.rateDist::min_value               0                       # Number of instructions fetched each cycle (Total)
system.cpu1.fetch.rateDist::max_value               8                       # Number of instructions fetched each cycle (Total)
system.cpu1.fetch.rateDist::total           309759243                       # Number of instructions fetched each cycle (Total)
system.cpu1.fp_regfile_reads                       12                       # number of floating regfile reads
system.cpu1.idleCycles                         644683                       # Total number of cycles that the CPU has spent unscheduled due to idling
system.cpu1.iew.branchMispredicts             1405551                       # Number of branch mispredicts detected at execute
system.cpu1.iew.exec_branches                17938599                       # Number of branches executed
system.cpu1.iew.exec_nop                            0                       # number of nop insts executed
system.cpu1.iew.exec_rate                    0.247262                       # Inst execution rate
system.cpu1.iew.exec_refs                    25941986                       # number of memory reference insts executed
system.cpu1.iew.exec_stores                   6586386                       # Number of stores executed
system.cpu1.iew.exec_swp                            0                       # number of swp insts executed
system.cpu1.iew.iewBlockCycles              204883459                       # Number of cycles IEW is blocking
system.cpu1.iew.iewDispLoadInsts             19809151                       # Number of dispatched load instructions
system.cpu1.iew.iewDispNonSpecInsts           1051091                       # Number of dispatched non-speculative instructions
system.cpu1.iew.iewDispSquashedInsts          1161023                       # Number of squashed instructions skipped by dispatch
system.cpu1.iew.iewDispStoreInsts             6878998                       # Number of dispatched store instructions
system.cpu1.iew.iewDispatchedInsts           80392696                       # Number of instructions dispatched to IQ
system.cpu1.iew.iewExecLoadInsts             19355600                       # Number of load instructions executed
system.cpu1.iew.iewExecSquashedInsts          1326903                       # Number of squashed instructions skipped in execute
system.cpu1.iew.iewExecutedInsts             76751013                       # Number of executed instructions
system.cpu1.iew.iewIQFullEvents               1017348                       # Number of times the IQ has become full, causing a stall
system.cpu1.iew.iewIdleCycles                       0                       # Number of cycles IEW is idle
system.cpu1.iew.iewLSQFullEvents              7488822                       # Number of times the LSQ has become full, causing a stall
system.cpu1.iew.iewSquashCycles               1335003                       # Number of cycles IEW is squashing
system.cpu1.iew.iewUnblockCycles              9700391                       # Number of cycles IEW is unblocking
system.cpu1.iew.lsq.thread0.blockedLoads            0                       # Number of blocked loads due to partial load-store forwarding
system.cpu1.iew.lsq.thread0.cacheBlocked        96980                       # Number of times an access to memory failed due to the cache being blocked
system.cpu1.iew.lsq.thread0.forwLoads          705216                       # Number of loads that had data forwarded from stores
system.cpu1.iew.lsq.thread0.ignoredResponses        17600                       # Number of memory responses ignored because the instruction is squashed
system.cpu1.iew.lsq.thread0.invAddrLoads            0                       # Number of loads ignored due to an invalid address
system.cpu1.iew.lsq.thread0.invAddrSwpfs            0                       # Number of software prefetches ignored due to an invalid address
system.cpu1.iew.lsq.thread0.memOrderViolation         2065                       # Number of memory ordering violations
system.cpu1.iew.lsq.thread0.rescheduledLoads        10455                       # Number of loads that were rescheduled
system.cpu1.iew.lsq.thread0.squashedLoads      3057161                       # Number of loads squashed
system.cpu1.iew.lsq.thread0.squashedStores       603804                       # Number of stores squashed
system.cpu1.iew.memOrderViolationEvents          2065                       # Number of memory order violations
system.cpu1.iew.predictedNotTakenIncorrect       410325                       # Number of branches that were predicted not taken incorrectly
system.cpu1.iew.predictedTakenIncorrect        995226                       # Number of branches that were predicted taken incorrectly
system.cpu1.iew.wb_consumers                 43541234                       # num instructions consuming a value
system.cpu1.iew.wb_count                     75634381                       # cumulative count of insts written-back
system.cpu1.iew.wb_fanout                    0.827696                       # average fanout of values written-back
system.cpu1.iew.wb_producers                 36038909                       # num instructions producing a value
system.cpu1.iew.wb_rate                      0.243664                       # insts written-back per cycle
system.cpu1.iew.wb_sent                      75686388                       # cumulative count of insts sent to commit
system.cpu1.int_regfile_reads                97528821                       # number of integer regfile reads
system.cpu1.int_regfile_writes               50734105                       # number of integer regfile writes
system.cpu1.ipc                              0.218038                       # IPC: Instructions Per Cycle
system.cpu1.ipc_total                        0.218038                       # IPC: Total IPC of All Threads
system.cpu1.iq.FU_type_0::No_OpClass          2100758      2.69%      2.69% # Type of FU issued
system.cpu1.iq.FU_type_0::IntAlu             49619389     63.55%     66.24% # Type of FU issued
system.cpu1.iq.FU_type_0::IntMult                  54      0.00%     66.24% # Type of FU issued
system.cpu1.iq.FU_type_0::IntDiv                   88      0.00%     66.24% # Type of FU issued
system.cpu1.iq.FU_type_0::FloatAdd                  0      0.00%     66.24% # Type of FU issued
system.cpu1.iq.FU_type_0::FloatCmp                  0      0.00%     66.24% # Type of FU issued
system.cpu1.iq.FU_type_0::FloatCvt                  0      0.00%     66.24% # Type of FU issued
system.cpu1.iq.FU_type_0::FloatMult                 0      0.00%     66.24% # Type of FU issued
system.cpu1.iq.FU_type_0::FloatMultAcc              0      0.00%     66.24% # Type of FU issued
system.cpu1.iq.FU_type_0::FloatDiv                  0      0.00%     66.24% # Type of FU issued
system.cpu1.iq.FU_type_0::FloatMisc                 0      0.00%     66.24% # Type of FU issued
system.cpu1.iq.FU_type_0::FloatSqrt                 0      0.00%     66.24% # Type of FU issued
system.cpu1.iq.FU_type_0::SimdAdd                   0      0.00%     66.24% # Type of FU issued
system.cpu1.iq.FU_type_0::SimdAddAcc                0      0.00%     66.24% # Type of FU issued
system.cpu1.iq.FU_type_0::SimdAlu                   0      0.00%     66.24% # Type of FU issued
system.cpu1.iq.FU_type_0::SimdCmp                   0      0.00%     66.24% # Type of FU issued
system.cpu1.iq.FU_type_0::SimdCvt                   0      0.00%     66.24% # Type of FU issued
system.cpu1.iq.FU_type_0::SimdMisc                  0      0.00%     66.24% # Type of FU issued
system.cpu1.iq.FU_type_0::SimdMult                  0      0.00%     66.24% # Type of FU issued
system.cpu1.iq.FU_type_0::SimdMultAcc               0      0.00%     66.24% # Type of FU issued
system.cpu1.iq.FU_type_0::SimdShift                 0      0.00%     66.24% # Type of FU issued
system.cpu1.iq.FU_type_0::SimdShiftAcc              0      0.00%     66.24% # Type of FU issued
system.cpu1.iq.FU_type_0::SimdDiv                   0      0.00%     66.24% # Type of FU issued
system.cpu1.iq.FU_type_0::SimdSqrt                  0      0.00%     66.24% # Type of FU issued
system.cpu1.iq.FU_type_0::SimdFloatAdd              0      0.00%     66.24% # Type of FU issued
system.cpu1.iq.FU_type_0::SimdFloatAlu              0      0.00%     66.24% # Type of FU issued
system.cpu1.iq.FU_type_0::SimdFloatCmp              0      0.00%     66.24% # Type of FU issued
system.cpu1.iq.FU_type_0::SimdFloatCvt              0      0.00%     66.24% # Type of FU issued
system.cpu1.iq.FU_type_0::SimdFloatDiv              0      0.00%     66.24% # Type of FU issued
system.cpu1.iq.FU_type_0::SimdFloatMisc             0      0.00%     66.24% # Type of FU issued
system.cpu1.iq.FU_type_0::SimdFloatMult             0      0.00%     66.24% # Type of FU issued
system.cpu1.iq.FU_type_0::SimdFloatMultAcc            0      0.00%     66.24% # Type of FU issued
system.cpu1.iq.FU_type_0::SimdFloatSqrt             0      0.00%     66.24% # Type of FU issued
system.cpu1.iq.FU_type_0::SimdReduceAdd             0      0.00%     66.24% # Type of FU issued
system.cpu1.iq.FU_type_0::SimdReduceAlu             0      0.00%     66.24% # Type of FU issued
system.cpu1.iq.FU_type_0::SimdReduceCmp             0      0.00%     66.24% # Type of FU issued
system.cpu1.iq.FU_type_0::SimdFloatReduceAdd            0      0.00%     66.24% # Type of FU issued
system.cpu1.iq.FU_type_0::SimdFloatReduceCmp            0      0.00%     66.24% # Type of FU issued
system.cpu1.iq.FU_type_0::SimdAes                   0      0.00%     66.24% # Type of FU issued
system.cpu1.iq.FU_type_0::SimdAesMix                0      0.00%     66.24% # Type of FU issued
system.cpu1.iq.FU_type_0::SimdSha1Hash              0      0.00%     66.24% # Type of FU issued
system.cpu1.iq.FU_type_0::SimdSha1Hash2             0      0.00%     66.24% # Type of FU issued
system.cpu1.iq.FU_type_0::SimdSha256Hash            0      0.00%     66.24% # Type of FU issued
system.cpu1.iq.FU_type_0::SimdSha256Hash2            0      0.00%     66.24% # Type of FU issued
system.cpu1.iq.FU_type_0::SimdShaSigma2             0      0.00%     66.24% # Type of FU issued
system.cpu1.iq.FU_type_0::SimdShaSigma3             0      0.00%     66.24% # Type of FU issued
system.cpu1.iq.FU_type_0::SimdPredAlu               0      0.00%     66.24% # Type of FU issued
system.cpu1.iq.FU_type_0::MemRead            20762766     26.59%     92.83% # Type of FU issued
system.cpu1.iq.FU_type_0::MemWrite            5594849      7.17%    100.00% # Type of FU issued
system.cpu1.iq.FU_type_0::FloatMemRead              0      0.00%    100.00% # Type of FU issued
system.cpu1.iq.FU_type_0::FloatMemWrite            12      0.00%    100.00% # Type of FU issued
system.cpu1.iq.FU_type_0::IprAccess                 0      0.00%    100.00% # Type of FU issued
system.cpu1.iq.FU_type_0::InstPrefetch              0      0.00%    100.00% # Type of FU issued
system.cpu1.iq.FU_type_0::total              78077916                       # Type of FU issued
system.cpu1.iq.fp_alu_accesses                     14                       # Number of floating point alu accesses
system.cpu1.iq.fp_inst_queue_reads                 26                       # Number of floating instruction queue reads
system.cpu1.iq.fp_inst_queue_wakeup_accesses           12                       # Number of floating instruction queue wakeup accesses
system.cpu1.iq.fp_inst_queue_writes                12                       # Number of floating instruction queue writes
system.cpu1.iq.fu_busy_cnt                    1634677                       # FU busy when requested
system.cpu1.iq.fu_busy_rate                  0.020936                       # FU busy rate (busy events/executed inst)
system.cpu1.iq.fu_full::No_OpClass                  0      0.00%      0.00% # attempts to use FU when none available
system.cpu1.iq.fu_full::IntAlu                 404608     24.75%     24.75% # attempts to use FU when none available
system.cpu1.iq.fu_full::IntMult                     0      0.00%     24.75% # attempts to use FU when none available
system.cpu1.iq.fu_full::IntDiv                      0      0.00%     24.75% # attempts to use FU when none available
system.cpu1.iq.fu_full::FloatAdd                    0      0.00%     24.75% # attempts to use FU when none available
system.cpu1.iq.fu_full::FloatCmp                    0      0.00%     24.75% # attempts to use FU when none available
system.cpu1.iq.fu_full::FloatCvt                    0      0.00%     24.75% # attempts to use FU when none available
system.cpu1.iq.fu_full::FloatMult                   0      0.00%     24.75% # attempts to use FU when none available
system.cpu1.iq.fu_full::FloatMultAcc                0      0.00%     24.75% # attempts to use FU when none available
system.cpu1.iq.fu_full::FloatDiv                    0      0.00%     24.75% # attempts to use FU when none available
system.cpu1.iq.fu_full::FloatMisc                   0      0.00%     24.75% # attempts to use FU when none available
system.cpu1.iq.fu_full::FloatSqrt                   0      0.00%     24.75% # attempts to use FU when none available
system.cpu1.iq.fu_full::SimdAdd                     0      0.00%     24.75% # attempts to use FU when none available
system.cpu1.iq.fu_full::SimdAddAcc                  0      0.00%     24.75% # attempts to use FU when none available
system.cpu1.iq.fu_full::SimdAlu                     0      0.00%     24.75% # attempts to use FU when none available
system.cpu1.iq.fu_full::SimdCmp                     0      0.00%     24.75% # attempts to use FU when none available
system.cpu1.iq.fu_full::SimdCvt                     0      0.00%     24.75% # attempts to use FU when none available
system.cpu1.iq.fu_full::SimdMisc                    0      0.00%     24.75% # attempts to use FU when none available
system.cpu1.iq.fu_full::SimdMult                    0      0.00%     24.75% # attempts to use FU when none available
system.cpu1.iq.fu_full::SimdMultAcc                 0      0.00%     24.75% # attempts to use FU when none available
system.cpu1.iq.fu_full::SimdShift                   0      0.00%     24.75% # attempts to use FU when none available
system.cpu1.iq.fu_full::SimdShiftAcc                0      0.00%     24.75% # attempts to use FU when none available
system.cpu1.iq.fu_full::SimdDiv                     0      0.00%     24.75% # attempts to use FU when none available
system.cpu1.iq.fu_full::SimdSqrt                    0      0.00%     24.75% # attempts to use FU when none available
system.cpu1.iq.fu_full::SimdFloatAdd                0      0.00%     24.75% # attempts to use FU when none available
system.cpu1.iq.fu_full::SimdFloatAlu                0      0.00%     24.75% # attempts to use FU when none available
system.cpu1.iq.fu_full::SimdFloatCmp                0      0.00%     24.75% # attempts to use FU when none available
system.cpu1.iq.fu_full::SimdFloatCvt                0      0.00%     24.75% # attempts to use FU when none available
system.cpu1.iq.fu_full::SimdFloatDiv                0      0.00%     24.75% # attempts to use FU when none available
system.cpu1.iq.fu_full::SimdFloatMisc               0      0.00%     24.75% # attempts to use FU when none available
system.cpu1.iq.fu_full::SimdFloatMult               0      0.00%     24.75% # attempts to use FU when none available
system.cpu1.iq.fu_full::SimdFloatMultAcc            0      0.00%     24.75% # attempts to use FU when none available
system.cpu1.iq.fu_full::SimdFloatSqrt               0      0.00%     24.75% # attempts to use FU when none available
system.cpu1.iq.fu_full::SimdReduceAdd               0      0.00%     24.75% # attempts to use FU when none available
system.cpu1.iq.fu_full::SimdReduceAlu               0      0.00%     24.75% # attempts to use FU when none available
system.cpu1.iq.fu_full::SimdReduceCmp               0      0.00%     24.75% # attempts to use FU when none available
system.cpu1.iq.fu_full::SimdFloatReduceAdd            0      0.00%     24.75% # attempts to use FU when none available
system.cpu1.iq.fu_full::SimdFloatReduceCmp            0      0.00%     24.75% # attempts to use FU when none available
system.cpu1.iq.fu_full::SimdAes                     0      0.00%     24.75% # attempts to use FU when none available
system.cpu1.iq.fu_full::SimdAesMix                  0      0.00%     24.75% # attempts to use FU when none available
system.cpu1.iq.fu_full::SimdSha1Hash                0      0.00%     24.75% # attempts to use FU when none available
system.cpu1.iq.fu_full::SimdSha1Hash2               0      0.00%     24.75% # attempts to use FU when none available
system.cpu1.iq.fu_full::SimdSha256Hash              0      0.00%     24.75% # attempts to use FU when none available
system.cpu1.iq.fu_full::SimdSha256Hash2             0      0.00%     24.75% # attempts to use FU when none available
system.cpu1.iq.fu_full::SimdShaSigma2               0      0.00%     24.75% # attempts to use FU when none available
system.cpu1.iq.fu_full::SimdShaSigma3               0      0.00%     24.75% # attempts to use FU when none available
system.cpu1.iq.fu_full::SimdPredAlu                 0      0.00%     24.75% # attempts to use FU when none available
system.cpu1.iq.fu_full::MemRead                961500     58.82%     83.57% # attempts to use FU when none available
system.cpu1.iq.fu_full::MemWrite               268567     16.43%    100.00% # attempts to use FU when none available
[...]
system.cpu1.dcache.WriteReq_mshr_miss_rate::.cpu1.data     0.092816                       # mshr miss rate for WriteReq accesses
system.cpu1.dcache.WriteReq_mshr_miss_rate::total     0.092816                       # mshr miss rate for WriteReq accesses
system.cpu1.dcache.WriteReq_avg_mshr_miss_latency::.cpu1.data 127817.374610                       # average WriteReq mshr miss latency
system.cpu1.dcache.WriteReq_avg_mshr_miss_latency::total 127817.374610                       # average WriteReq mshr miss latency
system.cpu1.dcache.LoadLockedReq_hits::.cpu1.data          355                       # number of LoadLockedReq hits
system.cpu1.dcache.LoadLockedReq_hits::total          355                       # number of LoadLockedReq hits
system.cpu1.dcache.LoadLockedReq_misses::.cpu1.data          209                       # number of LoadLockedReq misses
system.cpu1.dcache.LoadLockedReq_misses::total          209                       # number of LoadLockedReq misses
system.cpu1.dcache.LoadLockedReq_miss_latency::.cpu1.data      5794500                       # number of LoadLockedReq miss cycles
system.cpu1.dcache.LoadLockedReq_miss_latency::total      5794500                       # number of LoadLockedReq miss cycles
system.cpu1.dcache.LoadLockedReq_accesses::.cpu1.data          564                       # number of LoadLockedReq accesses(hits+misses)
system.cpu1.dcache.LoadLockedReq_accesses::total          564                       # number of LoadLockedReq accesses(hits+misses)
system.cpu1.dcache.LoadLockedReq_miss_rate::.cpu1.data     0.370567                       # miss rate for LoadLockedReq accesses
system.cpu1.dcache.LoadLockedReq_miss_rate::total     0.370567                       # miss rate for LoadLockedReq accesses
system.cpu1.dcache.LoadLockedReq_avg_miss_latency::.cpu1.data 27724.880383                       # average LoadLockedReq miss latency
system.cpu1.dcache.LoadLockedReq_avg_miss_latency::total 27724.880383                       # average LoadLockedReq miss latency
system.cpu1.dcache.LoadLockedReq_mshr_hits::.cpu1.data           98                       # number of LoadLockedReq MSHR hits
system.cpu1.dcache.LoadLockedReq_mshr_hits::total           98                       # number of LoadLockedReq MSHR hits
system.cpu1.dcache.LoadLockedReq_mshr_misses::.cpu1.data          111                       # number of LoadLockedReq MSHR misses
system.cpu1.dcache.LoadLockedReq_mshr_misses::total          111                       # number of LoadLockedReq MSHR misses
system.cpu1.dcache.LoadLockedReq_mshr_miss_latency::.cpu1.data      3781000                       # number of LoadLockedReq MSHR miss cycles
system.cpu1.dcache.LoadLockedReq_mshr_miss_latency::total      3781000                       # number of LoadLockedReq MSHR miss cycles
system.cpu1.dcache.LoadLockedReq_mshr_miss_rate::.cpu1.data     0.196809                       # mshr miss rate for LoadLockedReq accesses
system.cpu1.dcache.LoadLockedReq_mshr_miss_rate::total     0.196809                       # mshr miss rate for LoadLockedReq accesses
system.cpu1.dcache.LoadLockedReq_avg_mshr_miss_latency::.cpu1.data 34063.063063                       # average LoadLockedReq mshr miss latency
system.cpu1.dcache.LoadLockedReq_avg_mshr_miss_latency::total 34063.063063                       # average LoadLockedReq mshr miss latency
system.cpu1.dcache.StoreCondReq_hits::.cpu1.data          212                       # number of StoreCondReq hits
system.cpu1.dcache.StoreCondReq_hits::total          212                       # number of StoreCondReq hits
system.cpu1.dcache.StoreCondReq_misses::.cpu1.data          175                       # number of StoreCondReq misses
system.cpu1.dcache.StoreCondReq_misses::total          175                       # number of StoreCondReq misses
system.cpu1.dcache.StoreCondReq_miss_latency::.cpu1.data      1708000                       # number of StoreCondReq miss cycles
system.cpu1.dcache.StoreCondReq_miss_latency::total      1708000                       # number of StoreCondReq miss cycles
system.cpu1.dcache.StoreCondReq_accesses::.cpu1.data          387                       # number of StoreCondReq accesses(hits+misses)
system.cpu1.dcache.StoreCondReq_accesses::total          387                       # number of StoreCondReq accesses(hits+misses)
system.cpu1.dcache.StoreCondReq_miss_rate::.cpu1.data     0.452196                       # miss rate for StoreCondReq accesses
system.cpu1.dcache.StoreCondReq_miss_rate::total     0.452196                       # miss rate for StoreCondReq accesses
system.cpu1.dcache.StoreCondReq_avg_miss_latency::.cpu1.data         9760                       # average StoreCondReq miss latency
system.cpu1.dcache.StoreCondReq_avg_miss_latency::total         9760                       # average StoreCondReq miss latency
system.cpu1.dcache.StoreCondReq_mshr_misses::.cpu1.data          170                       # number of StoreCondReq MSHR misses
system.cpu1.dcache.StoreCondReq_mshr_misses::total          170                       # number of StoreCondReq MSHR misses
system.cpu1.dcache.StoreCondReq_mshr_miss_latency::.cpu1.data      1567000                       # number of StoreCondReq MSHR miss cycles
system.cpu1.dcache.StoreCondReq_mshr_miss_latency::total      1567000                       # number of StoreCondReq MSHR miss cycles
system.cpu1.dcache.StoreCondReq_mshr_miss_rate::.cpu1.data     0.439276                       # mshr miss rate for StoreCondReq accesses
system.cpu1.dcache.StoreCondReq_mshr_miss_rate::total     0.439276                       # mshr miss rate for StoreCondReq accesses
system.cpu1.dcache.StoreCondReq_avg_mshr_miss_latency::.cpu1.data  9217.647059                       # average StoreCondReq mshr miss latency
system.cpu1.dcache.StoreCondReq_avg_mshr_miss_latency::total  9217.647059                       # average StoreCondReq mshr miss latency
system.cpu1.dcache.StoreCondFailReq_miss_latency::.cpu1.data       386000                       # number of StoreCondFailReq miss cycles
system.cpu1.dcache.StoreCondFailReq_miss_latency::total       386000                       # number of StoreCondFailReq miss cycles
system.cpu1.dcache.StoreCondFailReq_avg_miss_latency::.cpu1.data          inf                       # average StoreCondFailReq miss latency
system.cpu1.dcache.StoreCondFailReq_avg_miss_latency::total          inf                       # average StoreCondFailReq miss latency
system.cpu1.dcache.StoreCondFailReq_mshr_miss_latency::.cpu1.data       357000                       # number of StoreCondFailReq MSHR miss cycles
system.cpu1.dcache.StoreCondFailReq_mshr_miss_latency::total       357000                       # number of StoreCondFailReq MSHR miss cycles
system.cpu1.dcache.StoreCondFailReq_avg_mshr_miss_latency::.cpu1.data          inf                       # average StoreCondFailReq mshr miss latency
system.cpu1.dcache.StoreCondFailReq_avg_mshr_miss_latency::total          inf                       # average StoreCondFailReq mshr miss latency
system.cpu1.dcache.SwapReq_hits::.cpu1.data       603668                       # number of SwapReq hits
system.cpu1.dcache.SwapReq_hits::total         603668                       # number of SwapReq hits
system.cpu1.dcache.SwapReq_misses::.cpu1.data       446566                       # number of SwapReq misses
system.cpu1.dcache.SwapReq_misses::total       446566                       # number of SwapReq misses
system.cpu1.dcache.SwapReq_miss_latency::.cpu1.data  50720709000                       # number of SwapReq miss cycles
system.cpu1.dcache.SwapReq_miss_latency::total  50720709000                       # number of SwapReq miss cycles
system.cpu1.dcache.SwapReq_accesses::.cpu1.data      1050234                       # number of SwapReq accesses(hits+misses)
system.cpu1.dcache.SwapReq_accesses::total      1050234                       # number of SwapReq accesses(hits+misses)
system.cpu1.dcache.SwapReq_miss_rate::.cpu1.data     0.425206                       # miss rate for SwapReq accesses
system.cpu1.dcache.SwapReq_miss_rate::total     0.425206                       # miss rate for SwapReq accesses
system.cpu1.dcache.SwapReq_avg_miss_latency::.cpu1.data 113579.423870                       # average SwapReq miss latency
system.cpu1.dcache.SwapReq_avg_miss_latency::total 113579.423870                       # average SwapReq miss latency
system.cpu1.dcache.SwapReq_mshr_misses::.cpu1.data       446566                       # number of SwapReq MSHR misses
system.cpu1.dcache.SwapReq_mshr_misses::total       446566                       # number of SwapReq MSHR misses
system.cpu1.dcache.SwapReq_mshr_miss_latency::.cpu1.data  50274143000                       # number of SwapReq MSHR miss cycles
system.cpu1.dcache.SwapReq_mshr_miss_latency::total  50274143000                       # number of SwapReq MSHR miss cycles
system.cpu1.dcache.SwapReq_mshr_miss_rate::.cpu1.data     0.425206                       # mshr miss rate for SwapReq accesses
system.cpu1.dcache.SwapReq_mshr_miss_rate::total     0.425206                       # mshr miss rate for SwapReq accesses
system.cpu1.dcache.SwapReq_avg_mshr_miss_latency::.cpu1.data 112579.423870                       # average SwapReq mshr miss latency
system.cpu1.dcache.SwapReq_avg_mshr_miss_latency::total 112579.423870                       # average SwapReq mshr miss latency
system.cpu1.dcache.tags.pwrStateResidencyTicks::UNDEFINED 1919795176000                       # Cumulative time (in ticks) in various power states
system.cpu1.dcache.tags.tagsinuse           28.675334                       # Cycle average of tags in use
system.cpu1.dcache.tags.total_refs           20225615                       # Total number of references to valid blocks.
system.cpu1.dcache.tags.sampled_refs          1547295                       # Sample count of references to valid blocks.
system.cpu1.dcache.tags.avg_refs            13.071596                       # Average number of references to valid blocks.
system.cpu1.dcache.tags.warmup_cycle        357914000                       # Cycle when the warmup percentage was hit.
system.cpu1.dcache.tags.occ_blocks::.cpu1.data    28.675334                       # Average occupied blocks per requestor
system.cpu1.dcache.tags.occ_percent::.cpu1.data     0.896104                       # Average percentage of cache occupancy
system.cpu1.dcache.tags.occ_percent::total     0.896104                       # Average percentage of cache occupancy
system.cpu1.dcache.tags.occ_task_id_blocks::1024           28                       # Occupied blocks per task id
system.cpu1.dcache.tags.age_task_id_blocks_1024::0            1                       # Occupied blocks per task id
system.cpu1.dcache.tags.age_task_id_blocks_1024::1           27                       # Occupied blocks per task id
system.cpu1.dcache.tags.occ_task_id_percent::1024     0.875000                       # Percentage of cache occupancy per task id
system.cpu1.dcache.tags.tag_accesses         50577479                       # Number of tag accesses
system.cpu1.dcache.tags.data_accesses        50577479                       # Number of data accesses
system.cpu_clk_domain.clock                       500                       # Clock period in ticks
system.tol2bus.pwrStateResidencyTicks::UNDEFINED 1919795176000                       # Cumulative time (in ticks) in various power states
system.tol2bus.trans_dist::ReadResp          64682327                       # Transaction distribution
system.tol2bus.trans_dist::ReadRespWithInvalidate            2                       # Transaction distribution
system.tol2bus.trans_dist::WritebackDirty     13665161                       # Transaction distribution
system.tol2bus.trans_dist::WritebackClean     61273577                       # Transaction distribution
system.tol2bus.trans_dist::CleanEvict        40051187                       # Transaction distribution
system.tol2bus.trans_dist::HardPFReq          9931273                       # Transaction distribution
system.tol2bus.trans_dist::UpgradeReq            1134                       # Transaction distribution
system.tol2bus.trans_dist::SCUpgradeReq           629                       # Transaction distribution
system.tol2bus.trans_dist::UpgradeResp           1763                       # Transaction distribution
system.tol2bus.trans_dist::SCUpgradeFailReq           82                       # Transaction distribution
system.tol2bus.trans_dist::UpgradeFailResp           82                       # Transaction distribution
system.tol2bus.trans_dist::ReadExReq          6305512                       # Transaction distribution
system.tol2bus.trans_dist::ReadExResp         6305512                       # Transaction distribution
system.tol2bus.trans_dist::ReadCleanReq      34581757                       # Transaction distribution
system.tol2bus.trans_dist::ReadSharedReq     30100573                       # Transaction distribution
system.tol2bus.trans_dist::InvalidateReq         1024                       # Transaction distribution
system.tol2bus.trans_dist::InvalidateResp         1024                       # Transaction distribution
system.tol2bus.pkt_count_system.cpu0.icache.mem_side::system.l2.cpu_side    103523045                       # Packet count per connected master and slave (bytes)
system.tol2bus.pkt_count_system.cpu0.dcache.mem_side::system.l2.cpu_side     96170943                       # Packet count per connected master and slave (bytes)
system.tol2bus.pkt_count_system.cpu1.icache.mem_side::system.l2.cpu_side        94795                       # Packet count per connected master and slave (bytes)
system.tol2bus.pkt_count_system.cpu1.dcache.mem_side::system.l2.cpu_side      4639073                       # Packet count per connected master and slave (bytes)
system.tol2bus.pkt_count_system.cpu2.icache.mem_side::system.l2.cpu_side        78382                       # Packet count per connected master and slave (bytes)
system.tol2bus.pkt_count_system.cpu2.dcache.mem_side::system.l2.cpu_side      4397759                       # Packet count per connected master and slave (bytes)
system.tol2bus.pkt_count_system.cpu3.icache.mem_side::system.l2.cpu_side        48919                       # Packet count per connected master and slave (bytes)
system.tol2bus.pkt_count_system.cpu3.dcache.mem_side::system.l2.cpu_side      4003456                       # Packet count per connected master and slave (bytes)
system.tol2bus.pkt_count::total             212956372                       # Packet count per connected master and slave (bytes)
system.tol2bus.pkt_size_system.cpu0.icache.mem_side::system.l2.cpu_side   4416982528                       # Cumulative packet size per connected master and slave (bytes)
system.tol2bus.pkt_size_system.cpu0.dcache.mem_side::system.l2.cpu_side   4103183104                       # Cumulative packet size per connected master and slave (bytes)
system.tol2bus.pkt_size_system.cpu1.icache.mem_side::system.l2.cpu_side      4043904                       # Cumulative packet size per connected master and slave (bytes)
system.tol2bus.pkt_size_system.cpu1.dcache.mem_side::system.l2.cpu_side    197827136                       # Cumulative packet size per connected master and slave (bytes)
system.tol2bus.pkt_size_system.cpu2.icache.mem_side::system.l2.cpu_side      3343616                       # Cumulative packet size per connected master and slave (bytes)
system.tol2bus.pkt_size_system.cpu2.dcache.mem_side::system.l2.cpu_side    187529344                       # Cumulative packet size per connected master and slave (bytes)
system.tol2bus.pkt_size_system.cpu3.icache.mem_side::system.l2.cpu_side      2086528                       # Cumulative packet size per connected master and slave (bytes)
system.tol2bus.pkt_size_system.cpu3.dcache.mem_side::system.l2.cpu_side    170715968                       # Cumulative packet size per connected master and slave (bytes)
system.tol2bus.pkt_size::total             9085712128                       # Cumulative packet size per connected master and slave (bytes)
system.tol2bus.snoops                        53946247                       # Total snoops (count)
system.tol2bus.snoopTraffic                 253594176                       # Total snoop traffic (bytes)
system.tol2bus.snoop_fanout::samples        124934963                       # Request fanout histogram
system.tol2bus.snoop_fanout::mean            0.168429                       # Request fanout histogram
system.tol2bus.snoop_fanout::stdev           0.401491                       # Request fanout histogram
system.tol2bus.snoop_fanout::underflows             0      0.00%      0.00% # Request fanout histogram
system.tol2bus.snoop_fanout::0              104801369     83.88%     83.88% # Request fanout histogram
system.tol2bus.snoop_fanout::1               19612807     15.70%     99.58% # Request fanout histogram
system.tol2bus.snoop_fanout::2                 155429      0.12%     99.71% # Request fanout histogram
system.tol2bus.snoop_fanout::3                 342456      0.27%     99.98% # Request fanout histogram
system.tol2bus.snoop_fanout::4                  22901      0.02%    100.00% # Request fanout histogram
system.tol2bus.snoop_fanout::5                      1      0.00%    100.00% # Request fanout histogram
system.tol2bus.snoop_fanout::6                      0      0.00%    100.00% # Request fanout histogram
system.tol2bus.snoop_fanout::7                      0      0.00%    100.00% # Request fanout histogram
system.tol2bus.snoop_fanout::8                      0      0.00%    100.00% # Request fanout histogram
system.tol2bus.snoop_fanout::overflows              0      0.00%    100.00% # Request fanout histogram
system.tol2bus.snoop_fanout::min_value              0                       # Request fanout histogram
system.tol2bus.snoop_fanout::max_value              5                       # Request fanout histogram
system.tol2bus.snoop_fanout::total          124934963                       # Request fanout histogram
system.tol2bus.reqLayer0.occupancy       141984433271                       # Layer occupancy (ticks)
system.tol2bus.reqLayer0.utilization              7.4                       # Layer utilization (%)
system.tol2bus.respLayer5.occupancy        2201932814                       # Layer occupancy (ticks)
system.tol2bus.respLayer5.utilization             0.1                       # Layer utilization (%)
system.tol2bus.respLayer4.occupancy          39382088                       # Layer occupancy (ticks)
system.tol2bus.respLayer4.utilization             0.0                       # Layer utilization (%)
system.tol2bus.respLayer7.occupancy        2004454430                       # Layer occupancy (ticks)
system.tol2bus.respLayer7.utilization             0.1                       # Layer utilization (%)
system.tol2bus.respLayer6.occupancy          24631640                       # Layer occupancy (ticks)
system.tol2bus.respLayer6.utilization             0.0                       # Layer utilization (%)
system.tol2bus.respLayer1.occupancy       48088081505                       # Layer occupancy (ticks)
system.tol2bus.respLayer1.utilization             2.5                       # Layer utilization (%)
system.tol2bus.respLayer0.occupancy       51762192682                       # Layer occupancy (ticks)
system.tol2bus.respLayer0.utilization             2.7                       # Layer utilization (%)
system.tol2bus.respLayer3.occupancy        2322631220                       # Layer occupancy (ticks)
system.tol2bus.respLayer3.utilization             0.1                       # Layer utilization (%)
system.tol2bus.respLayer2.occupancy          47609536                       # Layer occupancy (ticks)
system.tol2bus.respLayer2.utilization             0.0                       # Layer utilization (%)

---------- End Simulation Statistics   ----------
