
---------- Begin Simulation Statistics ----------
final_tick                               525531378000                       # Number of ticks from beginning of simulation (restored from checkpoints and never reset)
host_inst_rate                                  90957                       # Simulator instruction rate (inst/s)
host_mem_usage                                 739332                       # Number of bytes of host memory used
host_op_rate                                    91259                       # Simulator op (including micro ops) rate (op/s)
host_seconds                                  6744.15                       # Real time elapsed on the host
host_tick_rate                               77924030                       # Simulator tick rate (ticks/s)
sim_freq                                 1000000000000                       # Frequency of simulated ticks
sim_insts                                   613426009                       # Number of instructions simulated
sim_ops                                     615464810                       # Number of ops (including micro ops) simulated
sim_seconds                                  0.525531                       # Number of seconds simulated
sim_ticks                                525531378000                       # Number of ticks simulated
system.cpu0.branchPred.BTBCorrect                   0                       # Number of correct BTB predictions (this stat may not work properly.
system.cpu0.branchPred.BTBHitPct            86.781224                       # BTB Hit Percentage
system.cpu0.branchPred.BTBHits               76112070                       # Number of BTB hits
system.cpu0.branchPred.BTBLookups            87705689                       # Number of BTB lookups
system.cpu0.branchPred.RASInCorrect                 0                       # Number of incorrect RAS predictions.
system.cpu0.branchPred.condIncorrect          8307561                       # Number of conditional branches incorrect
system.cpu0.branchPred.condPredicted        118491409                       # Number of conditional branches predicted
system.cpu0.branchPred.indirectHits          10926771                       # Number of indirect target hits.
system.cpu0.branchPred.indirectLookups       10968806                       # Number of indirect predictor lookups.
system.cpu0.branchPred.indirectMisses           42035                       # Number of indirect misses.
system.cpu0.branchPred.lookups              152321576                       # Number of BP lookups
system.cpu0.branchPred.usedRAS                      0                       # Number of times the RAS was used to get a target.
system.cpu0.branchPredindirectMispredicted      1053005                       # Number of mispredicted indirect branches.
system.cpu0.commit.amos                        509420                       # Number of atomic instructions committed
system.cpu0.commit.branchMispredicts          5496781                       # The number of times a branch was mispredicted
system.cpu0.commit.branches                 138976546                       # Number of branches committed
system.cpu0.commit.bw_lim_events             18633091                       # number cycles where commit BW limit reached
system.cpu0.commit.commitNonSpecStalls        1532484                       # The number of times commit has been forced to stall to communicate backwards
system.cpu0.commit.commitSquashedInsts       42673399                       # The number of squashed insts skipped by commit
system.cpu0.commit.committedInsts           561811583                       # Number of instructions committed
system.cpu0.commit.committedOps             562322288                       # Number of ops (including micro ops) committed
system.cpu0.commit.committed_per_cycle::samples    952796053                       # Number of insts commited each cycle
system.cpu0.commit.committed_per_cycle::mean     0.590181                       # Number of insts commited each cycle
system.cpu0.commit.committed_per_cycle::stdev     1.418489                       # Number of insts commited each cycle
system.cpu0.commit.committed_per_cycle::underflows            0      0.00%      0.00% # Number of insts commited each cycle
system.cpu0.commit.committed_per_cycle::0    695568082     73.00%     73.00% # Number of insts commited each cycle
system.cpu0.commit.committed_per_cycle::1    149369664     15.68%     88.68% # Number of insts commited each cycle
system.cpu0.commit.committed_per_cycle::2     37952028      3.98%     92.66% # Number of insts commited each cycle
system.cpu0.commit.committed_per_cycle::3     33094057      3.47%     96.14% # Number of insts commited each cycle
system.cpu0.commit.committed_per_cycle::4     10242967      1.08%     97.21% # Number of insts commited each cycle
system.cpu0.commit.committed_per_cycle::5      3202087      0.34%     97.55% # Number of insts commited each cycle
system.cpu0.commit.committed_per_cycle::6      1419173      0.15%     97.70% # Number of insts commited each cycle
system.cpu0.commit.committed_per_cycle::7      3314904      0.35%     98.04% # Number of insts commited each cycle
system.cpu0.commit.committed_per_cycle::8     18633091      1.96%    100.00% # Number of insts commited each cycle
system.cpu0.commit.committed_per_cycle::overflows            0      0.00%    100.00% # Number of insts commited each cycle
system.cpu0.commit.committed_per_cycle::min_value            0                       # Number of insts commited each cycle
system.cpu0.commit.committed_per_cycle::max_value            8                       # Number of insts commited each cycle
system.cpu0.commit.committed_per_cycle::total    952796053                       # Number of insts commited each cycle
system.cpu0.commit.fp_insts                        65                       # Number of committed floating point instructions.
system.cpu0.commit.function_calls            11672757                       # Number of function calls committed.
system.cpu0.commit.int_insts                543455272                       # Number of committed integer instructions.
system.cpu0.commit.loads                    174763850                       # Number of loads committed
system.cpu0.commit.membars                    1019989                       # Number of memory barriers committed
system.cpu0.commit.op_class_0::No_OpClass      1019998      0.18%      0.18% # Class of committed instruction
system.cpu0.commit.op_class_0::IntAlu       311058498     55.32%     55.50% # Class of committed instruction
system.cpu0.commit.op_class_0::IntMult        4135934      0.74%     56.23% # Class of committed instruction
system.cpu0.commit.op_class_0::IntDiv         1017777      0.18%     56.41% # Class of committed instruction
system.cpu0.commit.op_class_0::FloatAdd             0      0.00%     56.41% # Class of committed instruction
system.cpu0.commit.op_class_0::FloatCmp             6      0.00%     56.41% # Class of committed instruction
system.cpu0.commit.op_class_0::FloatCvt            16      0.00%     56.41% # Class of committed instruction
system.cpu0.commit.op_class_0::FloatMult            0      0.00%     56.41% # Class of committed instruction
system.cpu0.commit.op_class_0::FloatMultAcc            0      0.00%     56.41% # Class of committed instruction
system.cpu0.commit.op_class_0::FloatDiv             2      0.00%     56.41% # Class of committed instruction
system.cpu0.commit.op_class_0::FloatMisc            6      0.00%     56.41% # Class of committed instruction
system.cpu0.commit.op_class_0::FloatSqrt            0      0.00%     56.41% # Class of committed instruction
system.cpu0.commit.op_class_0::SimdAdd              0      0.00%     56.41% # Class of committed instruction
system.cpu0.commit.op_class_0::SimdAddAcc            0      0.00%     56.41% # Class of committed instruction
system.cpu0.commit.op_class_0::SimdAlu              0      0.00%     56.41% # Class of committed instruction
system.cpu0.commit.op_class_0::SimdCmp              0      0.00%     56.41% # Class of committed instruction
system.cpu0.commit.op_class_0::SimdCvt              0      0.00%     56.41% # Class of committed instruction
system.cpu0.commit.op_class_0::SimdMisc             0      0.00%     56.41% # Class of committed instruction
system.cpu0.commit.op_class_0::SimdMult             0      0.00%     56.41% # Class of committed instruction
system.cpu0.commit.op_class_0::SimdMultAcc            0      0.00%     56.41% # Class of committed instruction
system.cpu0.commit.op_class_0::SimdShift            0      0.00%     56.41% # Class of committed instruction
system.cpu0.commit.op_class_0::SimdShiftAcc            0      0.00%     56.41% # Class of committed instruction
system.cpu0.commit.op_class_0::SimdDiv              0      0.00%     56.41% # Class of committed instruction
system.cpu0.commit.op_class_0::SimdSqrt             0      0.00%     56.41% # Class of committed instruction
system.cpu0.commit.op_class_0::SimdFloatAdd            0      0.00%     56.41% # Class of committed instruction
system.cpu0.commit.op_class_0::SimdFloatAlu            0      0.00%     56.41% # Class of committed instruction
system.cpu0.commit.op_class_0::SimdFloatCmp            0      0.00%     56.41% # Class of committed instruction
system.cpu0.commit.op_class_0::SimdFloatCvt            0      0.00%     56.41% # Class of committed instruction
system.cpu0.commit.op_class_0::SimdFloatDiv            0      0.00%     56.41% # Class of committed instruction
system.cpu0.commit.op_class_0::SimdFloatMisc            0      0.00%     56.41% # Class of committed instruction
system.cpu0.commit.op_class_0::SimdFloatMult            0      0.00%     56.41% # Class of committed instruction
system.cpu0.commit.op_class_0::SimdFloatMultAcc            0      0.00%     56.41% # Class of committed instruction
system.cpu0.commit.op_class_0::SimdFloatSqrt            0      0.00%     56.41% # Class of committed instruction
system.cpu0.commit.op_class_0::SimdReduceAdd            0      0.00%     56.41% # Class of committed instruction
system.cpu0.commit.op_class_0::SimdReduceAlu            0      0.00%     56.41% # Class of committed instruction
system.cpu0.commit.op_class_0::SimdReduceCmp            0      0.00%     56.41% # Class of committed instruction
system.cpu0.commit.op_class_0::SimdFloatReduceAdd            0      0.00%     56.41% # Class of committed instruction
system.cpu0.commit.op_class_0::SimdFloatReduceCmp            0      0.00%     56.41% # Class of committed instruction
system.cpu0.commit.op_class_0::SimdAes              0      0.00%     56.41% # Class of committed instruction
system.cpu0.commit.op_class_0::SimdAesMix            0      0.00%     56.41% # Class of committed instruction
system.cpu0.commit.op_class_0::SimdSha1Hash            0      0.00%     56.41% # Class of committed instruction
system.cpu0.commit.op_class_0::SimdSha1Hash2            0      0.00%     56.41% # Class of committed instruction
system.cpu0.commit.op_class_0::SimdSha256Hash            0      0.00%     56.41% # Class of committed instruction
system.cpu0.commit.op_class_0::SimdSha256Hash2            0      0.00%     56.41% # Class of committed instruction
system.cpu0.commit.op_class_0::SimdShaSigma2            0      0.00%     56.41% # Class of committed instruction
system.cpu0.commit.op_class_0::SimdShaSigma3            0      0.00%     56.41% # Class of committed instruction
system.cpu0.commit.op_class_0::SimdPredAlu            0      0.00%     56.41% # Class of committed instruction
system.cpu0.commit.op_class_0::MemRead      175273258     31.17%     87.58% # Class of committed instruction
system.cpu0.commit.op_class_0::MemWrite      69816758     12.42%    100.00% # Class of committed instruction
system.cpu0.commit.op_class_0::FloatMemRead           12      0.00%    100.00% # Class of committed instruction
system.cpu0.commit.op_class_0::FloatMemWrite           23      0.00%    100.00% # Class of committed instruction
system.cpu0.commit.op_class_0::IprAccess            0      0.00%    100.00% # Class of committed instruction
system.cpu0.commit.op_class_0::InstPrefetch            0      0.00%    100.00% # Class of committed instruction
system.cpu0.commit.op_class_0::total        562322288                       # Class of committed instruction
system.cpu0.commit.refs                     245090051                       # Number of memory references committed
system.cpu0.commit.swp_count                        0                       # Number of s/w prefetches committed
system.cpu0.commit.vec_insts                        0                       # Number of committed Vector instructions.
system.cpu0.committedInsts                  561811583                       # Number of Instructions Simulated
system.cpu0.committedOps                    562322288                       # Number of Ops (including micro ops) Simulated
system.cpu0.cpi                              1.848336                       # CPI: Cycles Per Instruction
system.cpu0.cpi_total                        1.848336                       # CPI: Total CPI of All Threads
system.cpu0.decode.BlockedCycles            113142678                       # Number of cycles decode is blocked
system.cpu0.decode.BranchMispred              2815810                       # Number of times decode detected a branch misprediction
system.cpu0.decode.BranchResolved            75388454                       # Number of times decode resolved a branch
system.cpu0.decode.DecodedInsts             617090014                       # Number of instructions handled by decode
system.cpu0.decode.IdleCycles               401895938                       # Number of cycles decode is idle
system.cpu0.decode.RunCycles                438820883                       # Number of cycles decode is running
system.cpu0.decode.SquashCycles               5503025                       # Number of cycles decode is squashing
system.cpu0.decode.SquashedInsts              7644735                       # Number of squashed instructions handled by decode
system.cpu0.decode.UnblockCycles              2469111                       # Number of cycles decode is unblocking
system.cpu0.dtb.accesses                            0                       # DTB accesses
system.cpu0.dtb.hits                                0                       # DTB hits
system.cpu0.dtb.misses                              0                       # DTB misses
system.cpu0.dtb.read_accesses                       0                       # DTB read accesses
system.cpu0.dtb.read_hits                           0                       # DTB read hits
system.cpu0.dtb.read_misses                         0                       # DTB read misses
system.cpu0.dtb.write_accesses                      0                       # DTB write accesses
system.cpu0.dtb.write_hits                          0                       # DTB write hits
system.cpu0.dtb.write_misses                        0                       # DTB write misses
system.cpu0.fetch.Branches                  152321576                       # Number of branches that fetch encountered
system.cpu0.fetch.CacheLines                111023723                       # Number of cache lines fetched
system.cpu0.fetch.Cycles                    556778702                       # Number of cycles fetch has run and was not squashing or blocked
system.cpu0.fetch.IcacheSquashes              3285840                       # Number of outstanding Icache misses that were squashed
system.cpu0.fetch.IcacheWaitRetryStallCycles          127                       # Number of stall cycles due to full MSHR
system.cpu0.fetch.Insts                     629440299                       # Number of instructions fetch has processed
system.cpu0.fetch.MiscStallCycles                  44                       # Number of cycles fetch has spent waiting on interrupts, or bad addresses, or out of MSHRs
system.cpu0.fetch.PendingTrapStallCycles          172                       # Number of stall cycles due to pending traps
system.cpu0.fetch.SquashCycles               16627662                       # Number of cycles fetch has spent squashing
system.cpu0.fetch.branchRate                 0.146686                       # Number of branch fetches per cycle
system.cpu0.fetch.icacheStallCycles         396738759                       # Number of cycles fetch is stalled on an Icache miss
system.cpu0.fetch.predictedBranches          87038841                       # Number of branches that fetch has predicted taken
system.cpu0.fetch.rate                       0.606154                       # Number of inst fetches per cycle
system.cpu0.fetch.rateDist::samples         961831635                       # Number of instructions fetched each cycle (Total)
system.cpu0.fetch.rateDist::mean             0.654950                       # Number of instructions fetched each cycle (Total)
system.cpu0.fetch.rateDist::stdev            0.883687                       # Number of instructions fetched each cycle (Total)
system.cpu0.fetch.rateDist::underflows              0      0.00%      0.00% # Number of instructions fetched each cycle (Total)
system.cpu0.fetch.rateDist::0               507576202     52.77%     52.77% # Number of instructions fetched each cycle (Total)
system.cpu0.fetch.rateDist::1               341492834     35.50%     88.28% # Number of instructions fetched each cycle (Total)
system.cpu0.fetch.rateDist::2                67865303      7.06%     95.33% # Number of instructions fetched each cycle (Total)
system.cpu0.fetch.rateDist::3                33872892      3.52%     98.85% # Number of instructions fetched each cycle (Total)
system.cpu0.fetch.rateDist::4                 6165279      0.64%     99.49% # Number of instructions fetched each cycle (Total)
system.cpu0.fetch.rateDist::5                 3734973      0.39%     99.88% # Number of instructions fetched each cycle (Total)
system.cpu0.fetch.rateDist::6                   98828      0.01%     99.89% # Number of instructions fetched each cycle (Total)
system.cpu0.fetch.rateDist::7                 1021589      0.11%    100.00% # Number of instructions fetched each cycle (Total)
system.cpu0.fetch.rateDist::8                    3735      0.00%    100.00% # Number of instructions fetched each cycle (Total)
system.cpu0.fetch.rateDist::overflows               0      0.00%    100.00% # Number of instructions fetched each cycle (Total)
system.cpu0.fetch.rateDist::min_value               0                       # Number of instructions fetched each cycle (Total)
system.cpu0.fetch.rateDist::max_value               8                       # Number of instructions fetched each cycle (Total)
system.cpu0.fetch.rateDist::total           961831635                       # Number of instructions fetched each cycle (Total)
system.cpu0.fp_regfile_reads                       56                       # number of floating regfile reads
system.cpu0.fp_regfile_writes                      33                       # number of floating regfile writes
system.cpu0.idleCycles                       76585208                       # Total number of cycles that the CPU has spent unscheduled due to idling
system.cpu0.iew.branchMispredicts             5555388                       # Number of branch mispredicts detected at execute
system.cpu0.iew.exec_branches               143988547                       # Number of branches executed
system.cpu0.iew.exec_nop                            0                       # number of nop insts executed
system.cpu0.iew.exec_rate                    0.575492                       # Inst execution rate
system.cpu0.iew.exec_refs                   267394816                       # number of memory reference insts executed
system.cpu0.iew.exec_stores                  74872486                       # Number of stores executed
system.cpu0.iew.exec_swp                            0                       # number of swp insts executed
system.cpu0.iew.iewBlockCycles               88248736                       # Number of cycles IEW is blocking
system.cpu0.iew.iewDispLoadInsts            193240380                       # Number of dispatched load instructions
system.cpu0.iew.iewDispNonSpecInsts            512998                       # Number of dispatched non-speculative instructions
system.cpu0.iew.iewDispSquashedInsts          2670456                       # Number of squashed instructions skipped by dispatch
system.cpu0.iew.iewDispStoreInsts            76226347                       # Number of dispatched store instructions
system.cpu0.iew.iewDispatchedInsts          604981602                       # Number of instructions dispatched to IQ
system.cpu0.iew.iewExecLoadInsts            192522330                       # Number of load instructions executed
system.cpu0.iew.iewExecSquashedInsts          3194289                       # Number of squashed instructions skipped in execute
system.cpu0.iew.iewExecutedInsts            597600894                       # Number of executed instructions
system.cpu0.iew.iewIQFullEvents                520029                       # Number of times the IQ has become full, causing a stall
system.cpu0.iew.iewIdleCycles                       0                       # Number of cycles IEW is idle
system.cpu0.iew.iewLSQFullEvents              2310048                       # Number of times the LSQ has become full, causing a stall
system.cpu0.iew.iewSquashCycles               5503025                       # Number of cycles IEW is squashing
system.cpu0.iew.iewUnblockCycles              3437112                       # Number of cycles IEW is unblocking
system.cpu0.iew.lsq.thread0.blockedLoads            0                       # Number of blocked loads due to partial load-store forwarding
system.cpu0.iew.lsq.thread0.cacheBlocked       138557                       # Number of times an access to memory failed due to the cache being blocked
system.cpu0.iew.lsq.thread0.forwLoads        10707183                       # Number of loads that had data forwarded from stores
system.cpu0.iew.lsq.thread0.ignoredResponses        24941                       # Number of memory responses ignored because the instruction is squashed
system.cpu0.iew.lsq.thread0.invAddrLoads            0                       # Number of loads ignored due to an invalid address
system.cpu0.iew.lsq.thread0.invAddrSwpfs            0                       # Number of software prefetches ignored due to an invalid address
system.cpu0.iew.lsq.thread0.memOrderViolation         6688                       # Number of memory ordering violations
system.cpu0.iew.lsq.thread0.rescheduledLoads      3282698                       # Number of loads that were rescheduled
system.cpu0.iew.lsq.thread0.squashedLoads     18476530                       # Number of loads squashed
system.cpu0.iew.lsq.thread0.squashedStores      5900146                       # Number of stores squashed
system.cpu0.iew.memOrderViolationEvents          6688                       # Number of memory order violations
system.cpu0.iew.predictedNotTakenIncorrect       796286                       # Number of branches that were predicted not taken incorrectly
system.cpu0.iew.predictedTakenIncorrect       4759102                       # Number of branches that were predicted taken incorrectly
system.cpu0.iew.wb_consumers                250100344                       # num instructions consuming a value
system.cpu0.iew.wb_count                    590873322                       # cumulative count of insts written-back
system.cpu0.iew.wb_fanout                    0.849058                       # average fanout of values written-back
system.cpu0.iew.wb_producers                212349747                       # num instructions producing a value
system.cpu0.iew.wb_rate                      0.569014                       # insts written-back per cycle
system.cpu0.iew.wb_sent                     590919003                       # cumulative count of insts sent to commit
system.cpu0.int_regfile_reads               728219062                       # number of integer regfile reads
system.cpu0.int_regfile_writes              376933350                       # number of integer regfile writes
system.cpu0.ipc                              0.541027                       # IPC: Instructions Per Cycle
system.cpu0.ipc_total                        0.541027                       # IPC: Total IPC of All Threads
system.cpu0.iq.FU_type_0::No_OpClass          1021053      0.17%      0.17% # Type of FU issued
system.cpu0.iq.FU_type_0::IntAlu            325503288     54.18%     54.35% # Type of FU issued
system.cpu0.iq.FU_type_0::IntMult             4140094      0.69%     55.04% # Type of FU issued
system.cpu0.iq.FU_type_0::IntDiv              1018056      0.17%     55.21% # Type of FU issued
system.cpu0.iq.FU_type_0::FloatAdd                  0      0.00%     55.21% # Type of FU issued
system.cpu0.iq.FU_type_0::FloatCmp                  6      0.00%     55.21% # Type of FU issued
system.cpu0.iq.FU_type_0::FloatCvt                 16      0.00%     55.21% # Type of FU issued
system.cpu0.iq.FU_type_0::FloatMult                 0      0.00%     55.21% # Type of FU issued
system.cpu0.iq.FU_type_0::FloatMultAcc              0      0.00%     55.21% # Type of FU issued
system.cpu0.iq.FU_type_0::FloatDiv                  2      0.00%     55.21% # Type of FU issued
system.cpu0.iq.FU_type_0::FloatMisc                 6      0.00%     55.21% # Type of FU issued
system.cpu0.iq.FU_type_0::FloatSqrt                 0      0.00%     55.21% # Type of FU issued
system.cpu0.iq.FU_type_0::SimdAdd                   0      0.00%     55.21% # Type of FU issued
system.cpu0.iq.FU_type_0::SimdAddAcc                0      0.00%     55.21% # Type of FU issued
system.cpu0.iq.FU_type_0::SimdAlu                   0      0.00%     55.21% # Type of FU issued
system.cpu0.iq.FU_type_0::SimdCmp                   0      0.00%     55.21% # Type of FU issued
system.cpu0.iq.FU_type_0::SimdCvt                   0      0.00%     55.21% # Type of FU issued
system.cpu0.iq.FU_type_0::SimdMisc                  0      0.00%     55.21% # Type of FU issued
system.cpu0.iq.FU_type_0::SimdMult                  0      0.00%     55.21% # Type of FU issued
system.cpu0.iq.FU_type_0::SimdMultAcc               0      0.00%     55.21% # Type of FU issued
system.cpu0.iq.FU_type_0::SimdShift                 0      0.00%     55.21% # Type of FU issued
system.cpu0.iq.FU_type_0::SimdShiftAcc              0      0.00%     55.21% # Type of FU issued
system.cpu0.iq.FU_type_0::SimdDiv                   0      0.00%     55.21% # Type of FU issued
system.cpu0.iq.FU_type_0::SimdSqrt                  0      0.00%     55.21% # Type of FU issued
system.cpu0.iq.FU_type_0::SimdFloatAdd              0      0.00%     55.21% # Type of FU issued
system.cpu0.iq.FU_type_0::SimdFloatAlu              0      0.00%     55.21% # Type of FU issued
system.cpu0.iq.FU_type_0::SimdFloatCmp              0      0.00%     55.21% # Type of FU issued
system.cpu0.iq.FU_type_0::SimdFloatCvt              0      0.00%     55.21% # Type of FU issued
system.cpu0.iq.FU_type_0::SimdFloatDiv              0      0.00%     55.21% # Type of FU issued
system.cpu0.iq.FU_type_0::SimdFloatMisc             0      0.00%     55.21% # Type of FU issued
system.cpu0.iq.FU_type_0::SimdFloatMult             0      0.00%     55.21% # Type of FU issued
system.cpu0.iq.FU_type_0::SimdFloatMultAcc            0      0.00%     55.21% # Type of FU issued
system.cpu0.iq.FU_type_0::SimdFloatSqrt             0      0.00%     55.21% # Type of FU issued
system.cpu0.iq.FU_type_0::SimdReduceAdd             0      0.00%     55.21% # Type of FU issued
system.cpu0.iq.FU_type_0::SimdReduceAlu             0      0.00%     55.21% # Type of FU issued
system.cpu0.iq.FU_type_0::SimdReduceCmp             0      0.00%     55.21% # Type of FU issued
system.cpu0.iq.FU_type_0::SimdFloatReduceAdd            0      0.00%     55.21% # Type of FU issued
system.cpu0.iq.FU_type_0::SimdFloatReduceCmp            0      0.00%     55.21% # Type of FU issued
system.cpu0.iq.FU_type_0::SimdAes                   0      0.00%     55.21% # Type of FU issued
system.cpu0.iq.FU_type_0::SimdAesMix                0      0.00%     55.21% # Type of FU issued
system.cpu0.iq.FU_type_0::SimdSha1Hash              0      0.00%     55.21% # Type of FU issued
system.cpu0.iq.FU_type_0::SimdSha1Hash2             0      0.00%     55.21% # Type of FU issued
system.cpu0.iq.FU_type_0::SimdSha256Hash            0      0.00%     55.21% # Type of FU issued
system.cpu0.iq.FU_type_0::SimdSha256Hash2            0      0.00%     55.21% # Type of FU issued
system.cpu0.iq.FU_type_0::SimdShaSigma2             0      0.00%     55.21% # Type of FU issued
system.cpu0.iq.FU_type_0::SimdShaSigma3             0      0.00%     55.21% # Type of FU issued
system.cpu0.iq.FU_type_0::SimdPredAlu               0      0.00%     55.21% # Type of FU issued
system.cpu0.iq.FU_type_0::MemRead           194000634     32.29%     87.50% # Type of FU issued
system.cpu0.iq.FU_type_0::MemWrite           75111992     12.50%    100.00% # Type of FU issued
system.cpu0.iq.FU_type_0::FloatMemRead             14      0.00%    100.00% # Type of FU issued
system.cpu0.iq.FU_type_0::FloatMemWrite            23      0.00%    100.00% # Type of FU issued
system.cpu0.iq.FU_type_0::IprAccess                 0      0.00%    100.00% # Type of FU issued
system.cpu0.iq.FU_type_0::InstPrefetch              0      0.00%    100.00% # Type of FU issued
system.cpu0.iq.FU_type_0::total             600795184                       # Type of FU issued
system.cpu0.iq.fp_alu_accesses                     70                       # Number of floating point alu accesses
system.cpu0.iq.fp_inst_queue_reads                137                       # Number of floating instruction queue reads
system.cpu0.iq.fp_inst_queue_wakeup_accesses           67                       # Number of floating instruction queue wakeup accesses
system.cpu0.iq.fp_inst_queue_writes                69                       # Number of floating instruction queue writes
system.cpu0.iq.fu_busy_cnt                     891483                       # FU busy when requested
system.cpu0.iq.fu_busy_rate                  0.001484                       # FU busy rate (busy events/executed inst)
system.cpu0.iq.fu_full::No_OpClass                  0      0.00%      0.00% # attempts to use FU when none available
system.cpu0.iq.fu_full::IntAlu                 182943     20.52%     20.52% # attempts to use FU when none available
system.cpu0.iq.fu_full::IntMult                     0      0.00%     20.52% # attempts to use FU when none available
system.cpu0.iq.fu_full::IntDiv                      0      0.00%     20.52% # attempts to use FU when none available
system.cpu0.iq.fu_full::FloatAdd                    0      0.00%     20.52% # attempts to use FU when none available
system.cpu0.iq.fu_full::FloatCmp                    0      0.00%     20.52% # attempts to use FU when none available
system.cpu0.iq.fu_full::FloatCvt                    0      0.00%     20.52% # attempts to use FU when none available
system.cpu0.iq.fu_full::FloatMult                   0      0.00%     20.52% # attempts to use FU when none available
system.cpu0.iq.fu_full::FloatMultAcc                0      0.00%     20.52% # attempts to use FU when none available
system.cpu0.iq.fu_full::FloatDiv                    0      0.00%     20.52% # attempts to use FU when none available
system.cpu0.iq.fu_full::FloatMisc                   0      0.00%     20.52% # attempts to use FU when none available
system.cpu0.iq.fu_full::FloatSqrt                   0      0.00%     20.52% # attempts to use FU when none available
system.cpu0.iq.fu_full::SimdAdd                     0      0.00%     20.52% # attempts to use FU when none available
system.cpu0.iq.fu_full::SimdAddAcc                  0      0.00%     20.52% # attempts to use FU when none available
system.cpu0.iq.fu_full::SimdAlu                     0      0.00%     20.52% # attempts to use FU when none available
system.cpu0.iq.fu_full::SimdCmp                     0      0.00%     20.52% # attempts to use FU when none available
system.cpu0.iq.fu_full::SimdCvt                     0      0.00%     20.52% # attempts to use FU when none available
system.cpu0.iq.fu_full::SimdMisc                    0      0.00%     20.52% # attempts to use FU when none available
system.cpu0.iq.fu_full::SimdMult                    0      0.00%     20.52% # attempts to use FU when none available
system.cpu0.iq.fu_full::SimdMultAcc                 0      0.00%     20.52% # attempts to use FU when none available
system.cpu0.iq.fu_full::SimdShift                   0      0.00%     20.52% # attempts to use FU when none available
system.cpu0.iq.fu_full::SimdShiftAcc                0      0.00%     20.52% # attempts to use FU when none available
system.cpu0.iq.fu_full::SimdDiv                     0      0.00%     20.52% # attempts to use FU when none available
system.cpu0.iq.fu_full::SimdSqrt                    0      0.00%     20.52% # attempts to use FU when none available
system.cpu0.iq.fu_full::SimdFloatAdd                0      0.00%     20.52% # attempts to use FU when none available
system.cpu0.iq.fu_full::SimdFloatAlu                0      0.00%     20.52% # attempts to use FU when none available
system.cpu0.iq.fu_full::SimdFloatCmp                0      0.00%     20.52% # attempts to use FU when none available
system.cpu0.iq.fu_full::SimdFloatCvt                0      0.00%     20.52% # attempts to use FU when none available
system.cpu0.iq.fu_full::SimdFloatDiv                0      0.00%     20.52% # attempts to use FU when none available
system.cpu0.iq.fu_full::SimdFloatMisc               0      0.00%     20.52% # attempts to use FU when none available
system.cpu0.iq.fu_full::SimdFloatMult               0      0.00%     20.52% # attempts to use FU when none available
system.cpu0.iq.fu_full::SimdFloatMultAcc            0      0.00%     20.52% # attempts to use FU when none available
system.cpu0.iq.fu_full::SimdFloatSqrt               0      0.00%     20.52% # attempts to use FU when none available
system.cpu0.iq.fu_full::SimdReduceAdd               0      0.00%     20.52% # attempts to use FU when none available
system.cpu0.iq.fu_full::SimdReduceAlu               0      0.00%     20.52% # attempts to use FU when none available
system.cpu0.iq.fu_full::SimdReduceCmp               0      0.00%     20.52% # attempts to use FU when none available
system.cpu0.iq.fu_full::SimdFloatReduceAdd            0      0.00%     20.52% # attempts to use FU when none available
system.cpu0.iq.fu_full::SimdFloatReduceCmp            0      0.00%     20.52% # attempts to use FU when none available
system.cpu0.iq.fu_full::SimdAes                     0      0.00%     20.52% # attempts to use FU when none available
system.cpu0.iq.fu_full::SimdAesMix                  0      0.00%     20.52% # attempts to use FU when none available
system.cpu0.iq.fu_full::SimdSha1Hash                0      0.00%     20.52% # attempts to use FU when none available
system.cpu0.iq.fu_full::SimdSha1Hash2               0      0.00%     20.52% # attempts to use FU when none available
system.cpu0.iq.fu_full::SimdSha256Hash              0      0.00%     20.52% # attempts to use FU when none available
system.cpu0.iq.fu_full::SimdSha256Hash2             0      0.00%     20.52% # attempts to use FU when none available
system.cpu0.iq.fu_full::SimdShaSigma2               0      0.00%     20.52% # attempts to use FU when none available
system.cpu0.iq.fu_full::SimdShaSigma3               0      0.00%     20.52% # attempts to use FU when none available
system.cpu0.iq.fu_full::SimdPredAlu                 0      0.00%     20.52% # attempts to use FU when none available
system.cpu0.iq.fu_full::MemRead                606137     67.99%     88.51% # attempts to use FU when none available
system.cpu0.iq.fu_full::MemWrite               102400     11.49%    100.00% # attempts to use FU when none available
system.cpu0.iq.fu_full::FloatMemRead                0      0.00%    100.00% # attempts to use FU when none available
system.cpu0.iq.fu_full::FloatMemWrite               3      0.00%    100.00% # attempts to use FU when none available
system.cpu0.iq.fu_full::IprAccess                   0      0.00%    100.00% # attempts to use FU when none available
system.cpu0.iq.fu_full::InstPrefetch                0      0.00%    100.00% # attempts to use FU when none available
system.cpu0.iq.int_alu_accesses             600665544                       # Number of integer alu accesses
system.cpu0.iq.int_inst_queue_reads        2164379369                       # Number of integer instruction queue reads
system.cpu0.iq.int_inst_queue_wakeup_accesses    590873255                       # Number of integer instruction queue wakeup accesses
system.cpu0.iq.int_inst_queue_writes        647646552                       # Number of integer instruction queue writes
system.cpu0.iq.iqInstsAdded                 603448425                       # Number of instructions added to the IQ (excludes non-spec)
system.cpu0.iq.iqInstsIssued                600795184                       # Number of instructions issued
system.cpu0.iq.iqNonSpecInstsAdded            1533177                       # Number of non-speculative instructions added to the IQ
system.cpu0.iq.iqSquashedInstsExamined       42659310                       # Number of squashed instructions iterated over during squash; mainly for profiling
system.cpu0.iq.iqSquashedInstsIssued            66021                       # Number of squashed instructions issued
system.cpu0.iq.iqSquashedNonSpecRemoved           693                       # Number of squashed non-spec instructions that were removed
system.cpu0.iq.iqSquashedOperandsExamined     15962141                       # Number of squashed operands that are examined and possibly removed from graph
system.cpu0.iq.issued_per_cycle::samples    961831635                       # Number of insts issued each cycle
system.cpu0.iq.issued_per_cycle::mean        0.624637                       # Number of insts issued each cycle
system.cpu0.iq.issued_per_cycle::stdev       0.813968                       # Number of insts issued each cycle
system.cpu0.iq.issued_per_cycle::underflows            0      0.00%      0.00% # Number of insts issued each cycle
system.cpu0.iq.issued_per_cycle::0          524128215     54.49%     54.49% # Number of insts issued each cycle
system.cpu0.iq.issued_per_cycle::1          306175758     31.83%     86.33% # Number of insts issued each cycle
system.cpu0.iq.issued_per_cycle::2          107624107     11.19%     97.51% # Number of insts issued each cycle
system.cpu0.iq.issued_per_cycle::3           18889780      1.96%     99.48% # Number of insts issued each cycle
system.cpu0.iq.issued_per_cycle::4            3021106      0.31%     99.79% # Number of insts issued each cycle
system.cpu0.iq.issued_per_cycle::5            1536010      0.16%     99.95% # Number of insts issued each cycle
system.cpu0.iq.issued_per_cycle::6             313660      0.03%     99.99% # Number of insts issued each cycle
system.cpu0.iq.issued_per_cycle::7              88554      0.01%     99.99% # Number of insts issued each cycle
system.cpu0.iq.issued_per_cycle::8              54445      0.01%    100.00% # Number of insts issued each cycle
system.cpu0.iq.issued_per_cycle::overflows            0      0.00%    100.00% # Number of insts issued each cycle
system.cpu0.iq.issued_per_cycle::min_value            0                       # Number of insts issued each cycle
system.cpu0.iq.issued_per_cycle::max_value            8                       # Number of insts issued each cycle
system.cpu0.iq.issued_per_cycle::total      961831635                       # Number of insts issued each cycle
system.cpu0.iq.rate                          0.578568                       # Inst issue rate
system.cpu0.iq.vec_alu_accesses                     0                       # Number of vector alu accesses
system.cpu0.iq.vec_inst_queue_reads                 0                       # Number of vector instruction queue reads
system.cpu0.iq.vec_inst_queue_wakeup_accesses            0                       # Number of vector instruction queue wakeup accesses
system.cpu0.iq.vec_inst_queue_writes                0                       # Number of vector instruction queue writes
system.cpu0.itb.accesses                            0                       # DTB accesses
system.cpu0.itb.hits                                0                       # DTB hits
system.cpu0.itb.misses                              0                       # DTB misses
system.cpu0.itb.read_accesses                       0                       # DTB read accesses
system.cpu0.itb.read_hits                           0                       # DTB read hits
system.cpu0.itb.read_misses                         0                       # DTB read misses
system.cpu0.itb.write_accesses                      0                       # DTB write accesses
system.cpu0.itb.write_hits                          0                       # DTB write hits
system.cpu0.itb.write_misses                        0                       # DTB write misses
system.cpu0.memDep0.conflictingLoads          6667750                       # Number of conflicting loads.
system.cpu0.memDep0.conflictingStores         1402451                       # Number of conflicting stores.
system.cpu0.memDep0.insertedLoads           193240380                       # Number of loads inserted to the mem dependence unit.
system.cpu0.memDep0.insertedStores           76226347                       # Number of stores inserted to the mem dependence unit.
system.cpu0.misc_regfile_reads                   1070                       # number of misc regfile reads
system.cpu0.misc_regfile_writes                    30                       # number of misc regfile writes
system.cpu0.numCycles                      1038416843                       # number of cpu cycles simulated
system.cpu0.numWorkItemsCompleted                   0                       # number of work items this cpu completed
system.cpu0.numWorkItemsStarted                     0                       # number of work items this cpu started
system.cpu0.quiesceCycles                    12646536                       # Total number of cycles that CPU has spent quiesced or waiting for an interrupt
system.cpu0.rename.BlockCycles               95374541                       # Number of cycles rename is blocking
system.cpu0.rename.CommittedMaps            357828496                       # Number of HB maps that are committed
system.cpu0.rename.IQFullEvents               4088254                       # Number of times rename has blocked due to IQ full
system.cpu0.rename.IdleCycles               408071471                       # Number of cycles rename is idle
system.cpu0.rename.LQFullEvents               4262018                       # Number of times rename has blocked due to LQ full
system.cpu0.rename.ROBFullEvents                 5333                       # Number of times rename has blocked due to ROB full
system.cpu0.rename.RenameLookups            747482576                       # Number of register rename lookups that rename has made
system.cpu0.rename.RenamedInsts             612786128                       # Number of instructions processed by rename
system.cpu0.rename.RenamedOperands          392366145                       # Number of destination operands rename has renamed
system.cpu0.rename.RunCycles                434784655                       # Number of cycles rename is running
system.cpu0.rename.SQFullEvents               9927849                       # Number of times rename has blocked due to SQ full
system.cpu0.rename.SquashCycles               5503025                       # Number of cycles rename is squashing
system.cpu0.rename.UnblockCycles             17915747                       # Number of cycles rename is unblocking
system.cpu0.rename.UndoneMaps                34537644                       # Number of HB maps that are undone due to squashing
system.cpu0.rename.fp_rename_lookups               56                       # Number of floating rename lookups
system.cpu0.rename.int_rename_lookups       747482520                       # Number of integer rename lookups
system.cpu0.rename.serializeStallCycles        182196                       # count of cycles rename stalled for serializing inst
system.cpu0.rename.serializingInsts              3229                       # count of serializing insts renamed
system.cpu0.rename.skidInsts                  7917331                       # count of insts added to the skid buffer
system.cpu0.rename.tempSerializingInsts          3227                       # count of temporary serializing insts renamed
system.cpu0.rob.rob_reads                  1539145558                       # The number of ROB reads
system.cpu0.rob.rob_writes                 1219034334                       # The number of ROB writes
system.cpu0.timesIdled                       12461428                       # Number of times that the entire CPU went into an idle state and unscheduled itself
system.cpu0.workload.numSyscalls                 1026                       # Number of system calls
system.cpu1.branchPred.BTBCorrect                   0                       # Number of correct BTB predictions (this stat may not work properly.
system.cpu1.branchPred.BTBHitPct            73.684962                       # BTB Hit Percentage
system.cpu1.branchPred.BTBHits                3105144                       # Number of BTB hits
system.cpu1.branchPred.BTBLookups             4214081                       # Number of BTB lookups
system.cpu1.branchPred.RASInCorrect                 0                       # Number of incorrect RAS predictions.
system.cpu1.branchPred.condIncorrect           524194                       # Number of conditional branches incorrect
system.cpu1.branchPred.condPredicted          5551615                       # Number of conditional branches predicted
system.cpu1.branchPred.indirectHits            136304                       # Number of indirect target hits.
system.cpu1.branchPred.indirectLookups         192504                       # Number of indirect predictor lookups.
system.cpu1.branchPred.indirectMisses           56200                       # Number of indirect misses.
system.cpu1.branchPred.lookups                6234980                       # Number of BP lookups
system.cpu1.branchPred.usedRAS                      0                       # Number of times the RAS was used to get a target.
system.cpu1.branchPredindirectMispredicted         8883                       # Number of mispredicted indirect branches.
system.cpu1.commit.amos                        509177                       # Number of atomic instructions committed
system.cpu1.commit.branchMispredicts           371072                       # The number of times a branch was mispredicted
system.cpu1.commit.branches                   4420398                       # Number of branches committed
system.cpu1.commit.bw_lim_events               560120                       # number cycles where commit BW limit reached
system.cpu1.commit.commitNonSpecStalls        1528241                       # The number of times commit has been forced to stall to communicate backwards
system.cpu1.commit.commitSquashedInsts        4095724                       # The number of squashed insts skipped by commit
system.cpu1.commit.committedInsts            19247689                       # Number of instructions committed
system.cpu1.commit.committedOps              19757070                       # Number of ops (including micro ops) committed
system.cpu1.commit.committed_per_cycle::samples    115662677                       # Number of insts commited each cycle
system.cpu1.commit.committed_per_cycle::mean     0.170816                       # Number of insts commited each cycle
system.cpu1.commit.committed_per_cycle::stdev     0.830298                       # Number of insts commited each cycle
system.cpu1.commit.committed_per_cycle::underflows            0      0.00%      0.00% # Number of insts commited each cycle
system.cpu1.commit.committed_per_cycle::0    107674358     93.09%     93.09% # Number of insts commited each cycle
system.cpu1.commit.committed_per_cycle::1      3910236      3.38%     96.47% # Number of insts commited each cycle
system.cpu1.commit.committed_per_cycle::2      1283569      1.11%     97.58% # Number of insts commited each cycle
system.cpu1.commit.committed_per_cycle::3      1276375      1.10%     98.69% # Number of insts commited each cycle
system.cpu1.commit.committed_per_cycle::4       359386      0.31%     99.00% # Number of insts commited each cycle
system.cpu1.commit.committed_per_cycle::5       104057      0.09%     99.09% # Number of insts commited each cycle
system.cpu1.commit.committed_per_cycle::6       450250      0.39%     99.48% # Number of insts commited each cycle
system.cpu1.commit.committed_per_cycle::7        44326      0.04%     99.52% # Number of insts commited each cycle
system.cpu1.commit.committed_per_cycle::8       560120      0.48%    100.00% # Number of insts commited each cycle
system.cpu1.commit.committed_per_cycle::overflows            0      0.00%    100.00% # Number of insts commited each cycle
system.cpu1.commit.committed_per_cycle::min_value            0                       # Number of insts commited each cycle
system.cpu1.commit.committed_per_cycle::max_value            8                       # Number of insts commited each cycle
system.cpu1.commit.committed_per_cycle::total    115662677                       # Number of insts commited each cycle
system.cpu1.commit.fp_insts                        12                       # Number of committed floating point instructions.
system.cpu1.commit.function_calls              227613                       # Number of function calls committed.
system.cpu1.commit.int_insts                 18556383                       # Number of committed integer instructions.
system.cpu1.commit.loads                      5320770                       # Number of loads committed
system.cpu1.commit.membars                    1018430                       # Number of memory barriers committed
system.cpu1.commit.op_class_0::No_OpClass      1018430      5.15%      5.15% # Class of committed instruction
system.cpu1.commit.op_class_0::IntAlu        11648628     58.96%     64.11% # Class of committed instruction
system.cpu1.commit.op_class_0::IntMult             42      0.00%     64.11% # Class of committed instruction
system.cpu1.commit.op_class_0::IntDiv              84      0.00%     64.11% # Class of committed instruction
system.cpu1.commit.op_class_0::FloatAdd             0      0.00%     64.11% # Class of committed instruction
system.cpu1.commit.op_class_0::FloatCmp             0      0.00%     64.11% # Class of committed instruction
system.cpu1.commit.op_class_0::FloatCvt             0      0.00%     64.11% # Class of committed instruction
system.cpu1.commit.op_class_0::FloatMult            0      0.00%     64.11% # Class of committed instruction
system.cpu1.commit.op_class_0::FloatMultAcc            0      0.00%     64.11% # Class of committed instruction
system.cpu1.commit.op_class_0::FloatDiv             0      0.00%     64.11% # Class of committed instruction
system.cpu1.commit.op_class_0::FloatMisc            0      0.00%     64.11% # Class of committed instruction
system.cpu1.commit.op_class_0::FloatSqrt            0      0.00%     64.11% # Class of committed instruction
system.cpu1.commit.op_class_0::SimdAdd              0      0.00%     64.11% # Class of committed instruction
system.cpu1.commit.op_class_0::SimdAddAcc            0      0.00%     64.11% # Class of committed instruction
system.cpu1.commit.op_class_0::SimdAlu              0      0.00%     64.11% # Class of committed instruction
system.cpu1.commit.op_class_0::SimdCmp              0      0.00%     64.11% # Class of committed instruction
system.cpu1.commit.op_class_0::SimdCvt              0      0.00%     64.11% # Class of committed instruction
system.cpu1.commit.op_class_0::SimdMisc             0      0.00%     64.11% # Class of committed instruction
system.cpu1.commit.op_class_0::SimdMult             0      0.00%     64.11% # Class of committed instruction
system.cpu1.commit.op_class_0::SimdMultAcc            0      0.00%     64.11% # Class of committed instruction
system.cpu1.commit.op_class_0::SimdShift            0      0.00%     64.11% # Class of committed instruction
system.cpu1.commit.op_class_0::SimdShiftAcc            0      0.00%     64.11% # Class of committed instruction
system.cpu1.commit.op_class_0::SimdDiv              0      0.00%     64.11% # Class of committed instruction
system.cpu1.commit.op_class_0::SimdSqrt             0      0.00%     64.11% # Class of committed instruction
system.cpu1.commit.op_class_0::SimdFloatAdd            0      0.00%     64.11% # Class of committed instruction
system.cpu1.commit.op_class_0::SimdFloatAlu            0      0.00%     64.11% # Class of committed instruction
system.cpu1.commit.op_class_0::SimdFloatCmp            0      0.00%     64.11% # Class of committed instruction
system.cpu1.commit.op_class_0::SimdFloatCvt            0      0.00%     64.11% # Class of committed instruction
system.cpu1.commit.op_class_0::SimdFloatDiv            0      0.00%     64.11% # Class of committed instruction
system.cpu1.commit.op_class_0::SimdFloatMisc            0      0.00%     64.11% # Class of committed instruction
system.cpu1.commit.op_class_0::SimdFloatMult            0      0.00%     64.11% # Class of committed instruction
system.cpu1.commit.op_class_0::SimdFloatMultAcc            0      0.00%     64.11% # Class of committed instruction
system.cpu1.commit.op_class_0::SimdFloatSqrt            0      0.00%     64.11% # Class of committed instruction
system.cpu1.commit.op_class_0::SimdReduceAdd            0      0.00%     64.11% # Class of committed instruction
system.cpu1.commit.op_class_0::SimdReduceAlu            0      0.00%     64.11% # Class of committed instruction
system.cpu1.commit.op_class_0::SimdReduceCmp            0      0.00%     64.11% # Class of committed instruction
system.cpu1.commit.op_class_0::SimdFloatReduceAdd            0      0.00%     64.11% # Class of committed instruction
system.cpu1.commit.op_class_0::SimdFloatReduceCmp            0      0.00%     64.11% # Class of committed instruction
system.cpu1.commit.op_class_0::SimdAes              0      0.00%     64.11% # Class of committed instruction
system.cpu1.commit.op_class_0::SimdAesMix            0      0.00%     64.11% # Class of committed instruction
system.cpu1.commit.op_class_0::SimdSha1Hash            0      0.00%     64.11% # Class of committed instruction
system.cpu1.commit.op_class_0::SimdSha1Hash2            0      0.00%     64.11% # Class of committed instruction
system.cpu1.commit.op_class_0::SimdSha256Hash            0      0.00%     64.11% # Class of committed instruction
system.cpu1.commit.op_class_0::SimdSha256Hash2            0      0.00%     64.11% # Class of committed instruction
system.cpu1.commit.op_class_0::SimdShaSigma2            0      0.00%     64.11% # Class of committed instruction
system.cpu1.commit.op_class_0::SimdShaSigma3            0      0.00%     64.11% # Class of committed instruction
system.cpu1.commit.op_class_0::SimdPredAlu            0      0.00%     64.11% # Class of committed instruction
system.cpu1.commit.op_class_0::MemRead        5829947     29.51%     93.62% # Class of committed instruction
system.cpu1.commit.op_class_0::MemWrite       1259927      6.38%    100.00% # Class of committed instruction
system.cpu1.commit.op_class_0::FloatMemRead            0      0.00%    100.00% # Class of committed instruction
system.cpu1.commit.op_class_0::FloatMemWrite           12      0.00%    100.00% # Class of committed instruction
system.cpu1.commit.op_class_0::IprAccess            0      0.00%    100.00% # Class of committed instruction
system.cpu1.commit.op_class_0::InstPrefetch            0      0.00%    100.00% # Class of committed instruction
system.cpu1.commit.op_class_0::total         19757070                       # Class of committed instruction
system.cpu1.commit.refs                       7089886                       # Number of memory references committed
system.cpu1.commit.swp_count                        0                       # Number of s/w prefetches committed
system.cpu1.commit.vec_insts                        0                       # Number of committed Vector instructions.
system.cpu1.committedInsts                   19247689                       # Number of Instructions Simulated
system.cpu1.committedOps                     19757070                       # Number of Ops (including micro ops) Simulated
system.cpu1.cpi                              6.066310                       # CPI: Cycles Per Instruction
system.cpu1.cpi_total                        6.066310                       # CPI: Total CPI of All Threads
system.cpu1.decode.BlockedCycles            101152653                       # Number of cycles decode is blocked
system.cpu1.decode.BranchMispred               158215                       # Number of times decode detected a branch misprediction
system.cpu1.decode.BranchResolved             2897192                       # Number of times decode resolved a branch
system.cpu1.decode.DecodedInsts              25518023                       # Number of instructions handled by decode
system.cpu1.decode.IdleCycles                 3999580                       # Number of cycles decode is idle
system.cpu1.decode.RunCycles                  9785875                       # Number of cycles decode is running
system.cpu1.decode.SquashCycles                371593                       # Number of cycles decode is squashing
system.cpu1.decode.SquashedInsts               314705                       # Number of squashed instructions handled by decode
system.cpu1.decode.UnblockCycles              1108834                       # Number of cycles decode is unblocking
system.cpu1.dtb.accesses                            0                       # DTB accesses
system.cpu1.dtb.hits                                0                       # DTB hits
system.cpu1.dtb.misses                              0                       # DTB misses
system.cpu1.dtb.read_accesses                       0                       # DTB read accesses
system.cpu1.dtb.read_hits                           0                       # DTB read hits
system.cpu1.dtb.read_misses                         0                       # DTB read misses
system.cpu1.dtb.write_accesses                      0                       # DTB write accesses
system.cpu1.dtb.write_hits                          0                       # DTB write hits
system.cpu1.dtb.write_misses                        0                       # DTB write misses
system.cpu1.fetch.Branches                    6234980                       # Number of branches that fetch encountered
system.cpu1.fetch.CacheLines                  3565148                       # Number of cache lines fetched
system.cpu1.fetch.Cycles                    111845984                       # Number of cycles fetch has run and was not squashing or blocked
system.cpu1.fetch.IcacheSquashes                52768                       # Number of outstanding Icache misses that were squashed
system.cpu1.fetch.IcacheWaitRetryStallCycles           22                       # Number of stall cycles due to full MSHR
system.cpu1.fetch.Insts                      27714667                       # Number of instructions fetch has processed
system.cpu1.fetch.MiscStallCycles                   3                       # Number of cycles fetch has spent waiting on interrupts, or bad addresses, or out of MSHRs
system.cpu1.fetch.SquashCycles                1049430                       # Number of cycles fetch has spent squashing
system.cpu1.fetch.branchRate                 0.053399                       # Number of branch fetches per cycle
system.cpu1.fetch.icacheStallCycles           4047811                       # Number of cycles fetch is stalled on an Icache miss
system.cpu1.fetch.predictedBranches           3241448                       # Number of branches that fetch has predicted taken
system.cpu1.fetch.rate                       0.237359                       # Number of inst fetches per cycle
system.cpu1.fetch.rateDist::samples         116418535                       # Number of instructions fetched each cycle (Total)
system.cpu1.fetch.rateDist::mean             0.244554                       # Number of instructions fetched each cycle (Total)
system.cpu1.fetch.rateDist::stdev            0.711313                       # Number of instructions fetched each cycle (Total)
system.cpu1.fetch.rateDist::underflows              0      0.00%      0.00% # Number of instructions fetched each cycle (Total)
system.cpu1.fetch.rateDist::0                99414944     85.39%     85.39% # Number of instructions fetched each cycle (Total)
system.cpu1.fetch.rateDist::1                10058312      8.64%     94.03% # Number of instructions fetched each cycle (Total)
system.cpu1.fetch.rateDist::2                 4113281      3.53%     97.57% # Number of instructions fetched each cycle (Total)
system.cpu1.fetch.rateDist::3                 1876745      1.61%     99.18% # Number of instructions fetched each cycle (Total)
system.cpu1.fetch.rateDist::4                  504706      0.43%     99.61% # Number of instructions fetched each cycle (Total)
system.cpu1.fetch.rateDist::5                  167144      0.14%     99.76% # Number of instructions fetched each cycle (Total)
system.cpu1.fetch.rateDist::6                  282946      0.24%    100.00% # Number of instructions fetched each cycle (Total)
system.cpu1.fetch.rateDist::7                     323      0.00%    100.00% # Number of instructions fetched each cycle (Total)
system.cpu1.fetch.rateDist::8                     134      0.00%    100.00% # Number of instructions fetched each cycle (Total)
system.cpu1.fetch.rateDist::overflows               0      0.00%    100.00% # Number of instructions fetched each cycle (Total)
system.cpu1.fetch.rateDist::min_value               0                       # Number of instructions fetched each cycle (Total)
system.cpu1.fetch.rateDist::max_value               8                       # Number of instructions fetched each cycle (Total)
system.cpu1.fetch.rateDist::total           116418535                       # Number of instructions fetched each cycle (Total)
system.cpu1.fp_regfile_reads                       12                       # number of floating regfile reads
system.cpu1.idleCycles                         343912                       # Total number of cycles that the CPU has spent unscheduled due to idling
system.cpu1.iew.branchMispredicts              393087                       # Number of branch mispredicts detected at execute
system.cpu1.iew.exec_branches                 4945869                       # Number of branches executed
system.cpu1.iew.exec_nop                            0                       # number of nop insts executed
system.cpu1.iew.exec_rate                    0.186923                       # Inst execution rate
system.cpu1.iew.exec_refs                     7751837                       # number of memory reference insts executed
system.cpu1.iew.exec_stores                   1849925                       # Number of stores executed
system.cpu1.iew.exec_swp                            0                       # number of swp insts executed
system.cpu1.iew.iewBlockCycles               86626086                       # Number of cycles IEW is blocking
system.cpu1.iew.iewDispLoadInsts              6393194                       # Number of dispatched load instructions
system.cpu1.iew.iewDispNonSpecInsts            609040                       # Number of dispatched non-speculative instructions
system.cpu1.iew.iewDispSquashedInsts           407960                       # Number of squashed instructions skipped by dispatch
system.cpu1.iew.iewDispStoreInsts             2082033                       # Number of dispatched store instructions
system.cpu1.iew.iewDispatchedInsts           23847611                       # Number of instructions dispatched to IQ
system.cpu1.iew.iewExecLoadInsts              5901912                       # Number of load instructions executed
system.cpu1.iew.iewExecSquashedInsts           274824                       # Number of squashed instructions skipped in execute
system.cpu1.iew.iewExecutedInsts             21825568                       # Number of executed instructions
system.cpu1.iew.iewIQFullEvents                348393                       # Number of times the IQ has become full, causing a stall
system.cpu1.iew.iewIdleCycles                       0                       # Number of cycles IEW is idle
system.cpu1.iew.iewLSQFullEvents               817326                       # Number of times the LSQ has become full, causing a stall
system.cpu1.iew.iewSquashCycles                371593                       # Number of cycles IEW is squashing
system.cpu1.iew.iewUnblockCycles              1764638                       # Number of cycles IEW is unblocking
system.cpu1.iew.lsq.thread0.blockedLoads            0                       # Number of blocked loads due to partial load-store forwarding
system.cpu1.iew.lsq.thread0.cacheBlocked        20822                       # Number of times an access to memory failed due to the cache being blocked
system.cpu1.iew.lsq.thread0.forwLoads          146300                       # Number of loads that had data forwarded from stores
system.cpu1.iew.lsq.thread0.ignoredResponses         4637                       # Number of memory responses ignored because the instruction is squashed
system.cpu1.iew.lsq.thread0.invAddrLoads            0                       # Number of loads ignored due to an invalid address
system.cpu1.iew.lsq.thread0.invAddrSwpfs            0                       # Number of software prefetches ignored due to an invalid address
system.cpu1.iew.lsq.thread0.memOrderViolation          602                       # Number of memory ordering violations
system.cpu1.iew.lsq.thread0.rescheduledLoads         1362                       # Number of loads that were rescheduled
system.cpu1.iew.lsq.thread0.squashedLoads      1072424                       # Number of loads squashed
system.cpu1.iew.lsq.thread0.squashedStores       312917                       # Number of stores squashed
system.cpu1.iew.memOrderViolationEvents           602                       # Number of memory order violations
system.cpu1.iew.predictedNotTakenIncorrect       154205                       # Number of branches that were predicted not taken incorrectly
system.cpu1.iew.predictedTakenIncorrect        238882                       # Number of branches that were predicted taken incorrectly
system.cpu1.iew.wb_consumers                 12626979                       # num instructions consuming a value
system.cpu1.iew.wb_count                     21557383                       # cumulative count of insts written-back
system.cpu1.iew.wb_fanout                    0.846994                       # average fanout of values written-back
system.cpu1.iew.wb_producers                 10694975                       # num instructions producing a value
system.cpu1.iew.wb_rate                      0.184626                       # insts written-back per cycle
system.cpu1.iew.wb_sent                      21565944                       # cumulative count of insts sent to commit
system.cpu1.int_regfile_reads                27293255                       # number of integer regfile reads
system.cpu1.int_regfile_writes               14389104                       # number of integer regfile writes
system.cpu1.ipc                              0.164845                       # IPC: Instructions Per Cycle
system.cpu1.ipc_total                        0.164845                       # IPC: Total IPC of All Threads
system.cpu1.iq.FU_type_0::No_OpClass          1018642      4.61%      4.61% # Type of FU issued
system.cpu1.iq.FU_type_0::IntAlu             13250535     59.96%     64.57% # Type of FU issued
system.cpu1.iq.FU_type_0::IntMult                  46      0.00%     64.57% # Type of FU issued
system.cpu1.iq.FU_type_0::IntDiv                   84      0.00%     64.57% # Type of FU issued
system.cpu1.iq.FU_type_0::FloatAdd                  0      0.00%     64.57% # Type of FU issued
system.cpu1.iq.FU_type_0::FloatCmp                  0      0.00%     64.57% # Type of FU issued
system.cpu1.iq.FU_type_0::FloatCvt                  0      0.00%     64.57% # Type of FU issued
system.cpu1.iq.FU_type_0::FloatMult                 0      0.00%     64.57% # Type of FU issued
system.cpu1.iq.FU_type_0::FloatMultAcc              0      0.00%     64.57% # Type of FU issued
system.cpu1.iq.FU_type_0::FloatDiv                  0      0.00%     64.57% # Type of FU issued
system.cpu1.iq.FU_type_0::FloatMisc                 0      0.00%     64.57% # Type of FU issued
system.cpu1.iq.FU_type_0::FloatSqrt                 0      0.00%     64.57% # Type of FU issued
system.cpu1.iq.FU_type_0::SimdAdd                   0      0.00%     64.57% # Type of FU issued
system.cpu1.iq.FU_type_0::SimdAddAcc                0      0.00%     64.57% # Type of FU issued
system.cpu1.iq.FU_type_0::SimdAlu                   0      0.00%     64.57% # Type of FU issued
system.cpu1.iq.FU_type_0::SimdCmp                   0      0.00%     64.57% # Type of FU issued
system.cpu1.iq.FU_type_0::SimdCvt                   0      0.00%     64.57% # Type of FU issued
system.cpu1.iq.FU_type_0::SimdMisc                  0      0.00%     64.57% # Type of FU issued
system.cpu1.iq.FU_type_0::SimdMult                  0      0.00%     64.57% # Type of FU issued
system.cpu1.iq.FU_type_0::SimdMultAcc               0      0.00%     64.57% # Type of FU issued
system.cpu1.iq.FU_type_0::SimdShift                 0      0.00%     64.57% # Type of FU issued
system.cpu1.iq.FU_type_0::SimdShiftAcc              0      0.00%     64.57% # Type of FU issued
system.cpu1.iq.FU_type_0::SimdDiv                   0      0.00%     64.57% # Type of FU issued
system.cpu1.iq.FU_type_0::SimdSqrt                  0      0.00%     64.57% # Type of FU issued
system.cpu1.iq.FU_type_0::SimdFloatAdd              0      0.00%     64.57% # Type of FU issued
system.cpu1.iq.FU_type_0::SimdFloatAlu              0      0.00%     64.57% # Type of FU issued
system.cpu1.iq.FU_type_0::SimdFloatCmp              0      0.00%     64.57% # Type of FU issued
system.cpu1.iq.FU_type_0::SimdFloatCvt              0      0.00%     64.57% # Type of FU issued
system.cpu1.iq.FU_type_0::SimdFloatDiv              0      0.00%     64.57% # Type of FU issued
system.cpu1.iq.FU_type_0::SimdFloatMisc             0      0.00%     64.57% # Type of FU issued
system.cpu1.iq.FU_type_0::SimdFloatMult             0      0.00%     64.57% # Type of FU issued
system.cpu1.iq.FU_type_0::SimdFloatMultAcc            0      0.00%     64.57% # Type of FU issued
system.cpu1.iq.FU_type_0::SimdFloatSqrt             0      0.00%     64.57% # Type of FU issued
system.cpu1.iq.FU_type_0::SimdReduceAdd             0      0.00%     64.57% # Type of FU issued
system.cpu1.iq.FU_type_0::SimdReduceAlu             0      0.00%     64.57% # Type of FU issued
system.cpu1.iq.FU_type_0::SimdReduceCmp             0      0.00%     64.57% # Type of FU issued
system.cpu1.iq.FU_type_0::SimdFloatReduceAdd            0      0.00%     64.57% # Type of FU issued
system.cpu1.iq.FU_type_0::SimdFloatReduceCmp            0      0.00%     64.57% # Type of FU issued
system.cpu1.iq.FU_type_0::SimdAes                   0      0.00%     64.57% # Type of FU issued
system.cpu1.iq.FU_type_0::SimdAesMix                0      0.00%     64.57% # Type of FU issued
system.cpu1.iq.FU_type_0::SimdSha1Hash              0      0.00%     64.57% # Type of FU issued
system.cpu1.iq.FU_type_0::SimdSha1Hash2             0      0.00%     64.57% # Type of FU issued
system.cpu1.iq.FU_type_0::SimdSha256Hash            0      0.00%     64.57% # Type of FU issued
system.cpu1.iq.FU_type_0::SimdSha256Hash2            0      0.00%     64.57% # Type of FU issued
system.cpu1.iq.FU_type_0::SimdShaSigma2             0      0.00%     64.57% # Type of FU issued
system.cpu1.iq.FU_type_0::SimdShaSigma3             0      0.00%     64.57% # Type of FU issued
system.cpu1.iq.FU_type_0::SimdPredAlu               0      0.00%     64.57% # Type of FU issued
system.cpu1.iq.FU_type_0::MemRead             6476100     29.30%     93.87% # Type of FU issued
system.cpu1.iq.FU_type_0::MemWrite            1354973      6.13%    100.00% # Type of FU issued
system.cpu1.iq.FU_type_0::FloatMemRead              0      0.00%    100.00% # Type of FU issued
system.cpu1.iq.FU_type_0::FloatMemWrite            12      0.00%    100.00% # Type of FU issued
system.cpu1.iq.FU_type_0::IprAccess                 0      0.00%    100.00% # Type of FU issued
system.cpu1.iq.FU_type_0::InstPrefetch              0      0.00%    100.00% # Type of FU issued
system.cpu1.iq.FU_type_0::total              22100392                       # Type of FU issued
system.cpu1.iq.fp_alu_accesses                     15                       # Number of floating point alu accesses
system.cpu1.iq.fp_inst_queue_reads                 27                       # Number of floating instruction queue reads
system.cpu1.iq.fp_inst_queue_wakeup_accesses           12                       # Number of floating instruction queue wakeup accesses
system.cpu1.iq.fp_inst_queue_writes                12                       # Number of floating instruction queue writes
system.cpu1.iq.fu_busy_cnt                     613715                       # FU busy when requested
system.cpu1.iq.fu_busy_rate                  0.027769                       # FU busy rate (busy events/executed inst)
system.cpu1.iq.fu_full::No_OpClass                  0      0.00%      0.00% # attempts to use FU when none available
system.cpu1.iq.fu_full::IntAlu                 138798     22.62%     22.62% # attempts to use FU when none available
system.cpu1.iq.fu_full::IntMult                     0      0.00%     22.62% # attempts to use FU when none available
system.cpu1.iq.fu_full::IntDiv                      0      0.00%     22.62% # attempts to use FU when none available
system.cpu1.iq.fu_full::FloatAdd                    0      0.00%     22.62% # attempts to use FU when none available
system.cpu1.iq.fu_full::FloatCmp                    0      0.00%     22.62% # attempts to use FU when none available
system.cpu1.iq.fu_full::FloatCvt                    0      0.00%     22.62% # attempts to use FU when none available
system.cpu1.iq.fu_full::FloatMult                   0      0.00%     22.62% # attempts to use FU when none available
system.cpu1.iq.fu_full::FloatMultAcc                0      0.00%     22.62% # attempts to use FU when none available
system.cpu1.iq.fu_full::FloatDiv                    0      0.00%     22.62% # attempts to use FU when none available
system.cpu1.iq.fu_full::FloatMisc                   0      0.00%     22.62% # attempts to use FU when none available
system.cpu1.iq.fu_full::FloatSqrt                   0      0.00%     22.62% # attempts to use FU when none available
system.cpu1.iq.fu_full::SimdAdd                     0      0.00%     22.62% # attempts to use FU when none available
system.cpu1.iq.fu_full::SimdAddAcc                  0      0.00%     22.62% # attempts to use FU when none available
system.cpu1.iq.fu_full::SimdAlu                     0      0.00%     22.62% # attempts to use FU when none available
system.cpu1.iq.fu_full::SimdCmp                     0      0.00%     22.62% # attempts to use FU when none available
system.cpu1.iq.fu_full::SimdCvt                     0      0.00%     22.62% # attempts to use FU when none available
system.cpu1.iq.fu_full::SimdMisc                    0      0.00%     22.62% # attempts to use FU when none available
system.cpu1.iq.fu_full::SimdMult                    0      0.00%     22.62% # attempts to use FU when none available
system.cpu1.iq.fu_full::SimdMultAcc                 0      0.00%     22.62% # attempts to use FU when none available
system.cpu1.iq.fu_full::SimdShift                   0      0.00%     22.62% # attempts to use FU when none available
system.cpu1.iq.fu_full::SimdShiftAcc                0      0.00%     22.62% # attempts to use FU when none available
system.cpu1.iq.fu_full::SimdDiv                     0      0.00%     22.62% # attempts to use FU when none available
system.cpu1.iq.fu_full::SimdSqrt                    0      0.00%     22.62% # attempts to use FU when none available
system.cpu1.iq.fu_full::SimdFloatAdd                0      0.00%     22.62% # attempts to use FU when none available
system.cpu1.iq.fu_full::SimdFloatAlu                0      0.00%     22.62% # attempts to use FU when none available
system.cpu1.iq.fu_full::SimdFloatCmp                0      0.00%     22.62% # attempts to use FU when none available
system.cpu1.iq.fu_full::SimdFloatCvt                0      0.00%     22.62% # attempts to use FU when none available
system.cpu1.iq.fu_full::SimdFloatDiv                0      0.00%     22.62% # attempts to use FU when none available
system.cpu1.iq.fu_full::SimdFloatMisc               0      0.00%     22.62% # attempts to use FU when none available
system.cpu1.iq.fu_full::SimdFloatMult               0      0.00%     22.62% # attempts to use FU when none available
system.cpu1.iq.fu_full::SimdFloatMultAcc            0      0.00%     22.62% # attempts to use FU when none available
system.cpu1.iq.fu_full::SimdFloatSqrt               0      0.00%     22.62% # attempts to use FU when none available
system.cpu1.iq.fu_full::SimdReduceAdd               0      0.00%     22.62% # attempts to use FU when none available
system.cpu1.iq.fu_full::SimdReduceAlu               0      0.00%     22.62% # attempts to use FU when none available
system.cpu1.iq.fu_full::SimdReduceCmp               0      0.00%     22.62% # attempts to use FU when none available
system.cpu1.iq.fu_full::SimdFloatReduceAdd            0      0.00%     22.62% # attempts to use FU when none available
system.cpu1.iq.fu_full::SimdFloatReduceCmp            0      0.00%     22.62% # attempts to use FU when none available
system.cpu1.iq.fu_full::SimdAes                     0      0.00%     22.62% # attempts to use FU when none available
system.cpu1.iq.fu_full::SimdAesMix                  0      0.00%     22.62% # attempts to use FU when none available
system.cpu1.iq.fu_full::SimdSha1Hash                0      0.00%     22.62% # attempts to use FU when none available
system.cpu1.iq.fu_full::SimdSha1Hash2               0      0.00%     22.62% # attempts to use FU when none available
system.cpu1.iq.fu_full::SimdSha256Hash              0      0.00%     22.62% # attempts to use FU when none available
system.cpu1.iq.fu_full::SimdSha256Hash2             0      0.00%     22.62% # attempts to use FU when none available
system.cpu1.iq.fu_full::SimdShaSigma2               0      0.00%     22.62% # attempts to use FU when none available
system.cpu1.iq.fu_full::SimdShaSigma3               0      0.00%     22.62% # attempts to use FU when none available
system.cpu1.iq.fu_full::SimdPredAlu                 0      0.00%     22.62% # attempts to use FU when none available
system.cpu1.iq.fu_full::MemRead                420176     68.46%     91.08% # attempts to use FU when none available
[...]
system.cpu1.dcache.WriteReq_mshr_miss_latency::.cpu1.data  57533530711                       # number of WriteReq MSHR miss cycles
system.cpu1.dcache.WriteReq_mshr_miss_latency::total  57533530711                       # number of WriteReq MSHR miss cycles
system.cpu1.dcache.WriteReq_mshr_miss_rate::.cpu1.data     0.049958                       # mshr miss rate for WriteReq accesses
system.cpu1.dcache.WriteReq_mshr_miss_rate::total     0.049958                       # mshr miss rate for WriteReq accesses
system.cpu1.dcache.WriteReq_avg_mshr_miss_latency::.cpu1.data 90700.828146                       # average WriteReq mshr miss latency
system.cpu1.dcache.WriteReq_avg_mshr_miss_latency::total 90700.828146                       # average WriteReq mshr miss latency
system.cpu1.dcache.LoadLockedReq_hits::.cpu1.data         7137                       # number of LoadLockedReq hits
system.cpu1.dcache.LoadLockedReq_hits::total         7137                       # number of LoadLockedReq hits
system.cpu1.dcache.LoadLockedReq_misses::.cpu1.data         2230                       # number of LoadLockedReq misses
system.cpu1.dcache.LoadLockedReq_misses::total         2230                       # number of LoadLockedReq misses
system.cpu1.dcache.LoadLockedReq_miss_latency::.cpu1.data     61641000                       # number of LoadLockedReq miss cycles
system.cpu1.dcache.LoadLockedReq_miss_latency::total     61641000                       # number of LoadLockedReq miss cycles
system.cpu1.dcache.LoadLockedReq_accesses::.cpu1.data         9367                       # number of LoadLockedReq accesses(hits+misses)
system.cpu1.dcache.LoadLockedReq_accesses::total         9367                       # number of LoadLockedReq accesses(hits+misses)
system.cpu1.dcache.LoadLockedReq_miss_rate::.cpu1.data     0.238070                       # miss rate for LoadLockedReq accesses
system.cpu1.dcache.LoadLockedReq_miss_rate::total     0.238070                       # miss rate for LoadLockedReq accesses
system.cpu1.dcache.LoadLockedReq_avg_miss_latency::.cpu1.data 27641.704036                       # average LoadLockedReq miss latency
system.cpu1.dcache.LoadLockedReq_avg_miss_latency::total 27641.704036                       # average LoadLockedReq miss latency
system.cpu1.dcache.LoadLockedReq_mshr_hits::.cpu1.data          389                       # number of LoadLockedReq MSHR hits
system.cpu1.dcache.LoadLockedReq_mshr_hits::total          389                       # number of LoadLockedReq MSHR hits
system.cpu1.dcache.LoadLockedReq_mshr_misses::.cpu1.data         1841                       # number of LoadLockedReq MSHR misses
system.cpu1.dcache.LoadLockedReq_mshr_misses::total         1841                       # number of LoadLockedReq MSHR misses
system.cpu1.dcache.LoadLockedReq_mshr_miss_latency::.cpu1.data     44888500                       # number of LoadLockedReq MSHR miss cycles
system.cpu1.dcache.LoadLockedReq_mshr_miss_latency::total     44888500                       # number of LoadLockedReq MSHR miss cycles
system.cpu1.dcache.LoadLockedReq_mshr_miss_rate::.cpu1.data     0.196541                       # mshr miss rate for LoadLockedReq accesses
system.cpu1.dcache.LoadLockedReq_mshr_miss_rate::total     0.196541                       # mshr miss rate for LoadLockedReq accesses
system.cpu1.dcache.LoadLockedReq_avg_mshr_miss_latency::.cpu1.data 24382.672461                       # average LoadLockedReq mshr miss latency
system.cpu1.dcache.LoadLockedReq_avg_mshr_miss_latency::total 24382.672461                       # average LoadLockedReq mshr miss latency
system.cpu1.dcache.StoreCondReq_hits::.cpu1.data         3121                       # number of StoreCondReq hits
system.cpu1.dcache.StoreCondReq_hits::total         3121                       # number of StoreCondReq hits
system.cpu1.dcache.StoreCondReq_misses::.cpu1.data         3276                       # number of StoreCondReq misses
system.cpu1.dcache.StoreCondReq_misses::total         3276                       # number of StoreCondReq misses
system.cpu1.dcache.StoreCondReq_miss_latency::.cpu1.data     25842000                       # number of StoreCondReq miss cycles
system.cpu1.dcache.StoreCondReq_miss_latency::total     25842000                       # number of StoreCondReq miss cycles
system.cpu1.dcache.StoreCondReq_accesses::.cpu1.data         6397                       # number of StoreCondReq accesses(hits+misses)
system.cpu1.dcache.StoreCondReq_accesses::total         6397                       # number of StoreCondReq accesses(hits+misses)
system.cpu1.dcache.StoreCondReq_miss_rate::.cpu1.data     0.512115                       # miss rate for StoreCondReq accesses
system.cpu1.dcache.StoreCondReq_miss_rate::total     0.512115                       # miss rate for StoreCondReq accesses
system.cpu1.dcache.StoreCondReq_avg_miss_latency::.cpu1.data  7888.278388                       # average StoreCondReq miss latency
system.cpu1.dcache.StoreCondReq_avg_miss_latency::total  7888.278388                       # average StoreCondReq miss latency
system.cpu1.dcache.StoreCondReq_mshr_misses::.cpu1.data         3125                       # number of StoreCondReq MSHR misses
system.cpu1.dcache.StoreCondReq_mshr_misses::total         3125                       # number of StoreCondReq MSHR misses
system.cpu1.dcache.StoreCondReq_mshr_miss_latency::.cpu1.data     23257000                       # number of StoreCondReq MSHR miss cycles
system.cpu1.dcache.StoreCondReq_mshr_miss_latency::total     23257000                       # number of StoreCondReq MSHR miss cycles
system.cpu1.dcache.StoreCondReq_mshr_miss_rate::.cpu1.data     0.488510                       # mshr miss rate for StoreCondReq accesses
system.cpu1.dcache.StoreCondReq_mshr_miss_rate::total     0.488510                       # mshr miss rate for StoreCondReq accesses
system.cpu1.dcache.StoreCondReq_avg_mshr_miss_latency::.cpu1.data  7442.240000                       # average StoreCondReq mshr miss latency
system.cpu1.dcache.StoreCondReq_avg_mshr_miss_latency::total  7442.240000                       # average StoreCondReq mshr miss latency
system.cpu1.dcache.StoreCondFailReq_miss_latency::.cpu1.data      6196500                       # number of StoreCondFailReq miss cycles
system.cpu1.dcache.StoreCondFailReq_miss_latency::total      6196500                       # number of StoreCondFailReq miss cycles
system.cpu1.dcache.StoreCondFailReq_avg_miss_latency::.cpu1.data          inf                       # average StoreCondFailReq miss latency
system.cpu1.dcache.StoreCondFailReq_avg_miss_latency::total          inf                       # average StoreCondFailReq miss latency
system.cpu1.dcache.StoreCondFailReq_mshr_miss_latency::.cpu1.data      5656500                       # number of StoreCondFailReq MSHR miss cycles
system.cpu1.dcache.StoreCondFailReq_mshr_miss_latency::total      5656500                       # number of StoreCondFailReq MSHR miss cycles
system.cpu1.dcache.StoreCondFailReq_avg_mshr_miss_latency::.cpu1.data          inf                       # average StoreCondFailReq mshr miss latency
system.cpu1.dcache.StoreCondFailReq_avg_mshr_miss_latency::total          inf                       # average StoreCondFailReq mshr miss latency
system.cpu1.dcache.SwapReq_hits::.cpu1.data         2308                       # number of SwapReq hits
system.cpu1.dcache.SwapReq_hits::total           2308                       # number of SwapReq hits
system.cpu1.dcache.SwapReq_misses::.cpu1.data        99301                       # number of SwapReq misses
system.cpu1.dcache.SwapReq_misses::total        99301                       # number of SwapReq misses
system.cpu1.dcache.SwapReq_miss_latency::.cpu1.data   2209046999                       # number of SwapReq miss cycles
system.cpu1.dcache.SwapReq_miss_latency::total   2209046999                       # number of SwapReq miss cycles
system.cpu1.dcache.SwapReq_accesses::.cpu1.data       101609                       # number of SwapReq accesses(hits+misses)
system.cpu1.dcache.SwapReq_accesses::total       101609                       # number of SwapReq accesses(hits+misses)
system.cpu1.dcache.SwapReq_miss_rate::.cpu1.data     0.977285                       # miss rate for SwapReq accesses
system.cpu1.dcache.SwapReq_miss_rate::total     0.977285                       # miss rate for SwapReq accesses
system.cpu1.dcache.SwapReq_avg_miss_latency::.cpu1.data 22245.969316                       # average SwapReq miss latency
system.cpu1.dcache.SwapReq_avg_miss_latency::total 22245.969316                       # average SwapReq miss latency
system.cpu1.dcache.SwapReq_mshr_hits::.cpu1.data           32                       # number of SwapReq MSHR hits
system.cpu1.dcache.SwapReq_mshr_hits::total           32                       # number of SwapReq MSHR hits
system.cpu1.dcache.SwapReq_mshr_misses::.cpu1.data        99269                       # number of SwapReq MSHR misses
system.cpu1.dcache.SwapReq_mshr_misses::total        99269                       # number of SwapReq MSHR misses
system.cpu1.dcache.SwapReq_mshr_miss_latency::.cpu1.data   2109738999                       # number of SwapReq MSHR miss cycles
system.cpu1.dcache.SwapReq_mshr_miss_latency::total   2109738999                       # number of SwapReq MSHR miss cycles
system.cpu1.dcache.SwapReq_mshr_miss_rate::.cpu1.data     0.976971                       # mshr miss rate for SwapReq accesses
system.cpu1.dcache.SwapReq_mshr_miss_rate::total     0.976971                       # mshr miss rate for SwapReq accesses
system.cpu1.dcache.SwapReq_avg_mshr_miss_latency::.cpu1.data 21252.747575                       # average SwapReq mshr miss latency
system.cpu1.dcache.SwapReq_avg_mshr_miss_latency::total 21252.747575                       # average SwapReq mshr miss latency
system.cpu1.dcache.tags.pwrStateResidencyTicks::UNDEFINED 1072774079000                       # Cumulative time (in ticks) in various power states
system.cpu1.dcache.tags.tagsinuse           31.895481                       # Cycle average of tags in use
system.cpu1.dcache.tags.total_refs          105765390                       # Total number of references to valid blocks.
system.cpu1.dcache.tags.sampled_refs         34947172                       # Sample count of references to valid blocks.
system.cpu1.dcache.tags.avg_refs             3.026436                       # Average number of references to valid blocks.
system.cpu1.dcache.tags.warmup_cycle                0                       # Cycle when the warmup percentage was hit.
system.cpu1.dcache.tags.occ_blocks::.cpu1.data    31.895481                       # Average occupied blocks per requestor
system.cpu1.dcache.tags.occ_percent::.cpu1.data     0.996734                       # Average percentage of cache occupancy
system.cpu1.dcache.tags.occ_percent::total     0.996734                       # Average percentage of cache occupancy
system.cpu1.dcache.tags.occ_task_id_blocks::1024           27                       # Occupied blocks per task id
system.cpu1.dcache.tags.age_task_id_blocks_1024::1           27                       # Occupied blocks per task id
system.cpu1.dcache.tags.occ_task_id_percent::1024     0.843750                       # Percentage of cache occupancy per task id
system.cpu1.dcache.tags.tag_accesses        340361857                       # Number of tag accesses
system.cpu1.dcache.tags.data_accesses       340361857                       # Number of data accesses
system.cpu_clk_domain.clock                       500                       # Clock period in ticks
system.tol2bus.pwrStateResidencyTicks::UNDEFINED 1072774079000                       # Cumulative time (in ticks) in various power states
system.tol2bus.trans_dist::ReadResp         137493944                       # Transaction distribution
system.tol2bus.trans_dist::ReadRespWithInvalidate           35                       # Transaction distribution
system.tol2bus.trans_dist::WritebackDirty      9699696                       # Transaction distribution
system.tol2bus.trans_dist::WritebackClean    134480274                       # Transaction distribution
system.tol2bus.trans_dist::CleanEvict       231282078                       # Transaction distribution
system.tol2bus.trans_dist::UpgradeReq          235471                       # Transaction distribution
system.tol2bus.trans_dist::SCUpgradeReq         10190                       # Transaction distribution
system.tol2bus.trans_dist::UpgradeResp         245661                       # Transaction distribution
system.tol2bus.trans_dist::SCUpgradeFailReq         1677                       # Transaction distribution
system.tol2bus.trans_dist::UpgradeFailResp         1677                       # Transaction distribution
system.tol2bus.trans_dist::ReadExReq          2749303                       # Transaction distribution
system.tol2bus.trans_dist::ReadExResp         2749303                       # Transaction distribution
system.tol2bus.trans_dist::ReadCleanReq        262299                       # Transaction distribution
system.tol2bus.trans_dist::ReadSharedReq    137231682                       # Transaction distribution
system.tol2bus.pkt_count_system.cpu0.icache.mem_side::system.l2.cpu_side       465376                       # Packet count per connected master and slave (bytes)
system.tol2bus.pkt_count_system.cpu0.dcache.mem_side::system.l2.cpu_side    105105767                       # Packet count per connected master and slave (bytes)
system.tol2bus.pkt_count_system.cpu1.icache.mem_side::system.l2.cpu_side       107889                       # Packet count per connected master and slave (bytes)
system.tol2bus.pkt_count_system.cpu1.dcache.mem_side::system.l2.cpu_side    104663813                       # Packet count per connected master and slave (bytes)
system.tol2bus.pkt_count_system.cpu2.icache.mem_side::system.l2.cpu_side       104919                       # Packet count per connected master and slave (bytes)
system.tol2bus.pkt_count_system.cpu2.dcache.mem_side::system.l2.cpu_side    104755407                       # Packet count per connected master and slave (bytes)
system.tol2bus.pkt_count_system.cpu3.icache.mem_side::system.l2.cpu_side       108699                       # Packet count per connected master and slave (bytes)
system.tol2bus.pkt_count_system.cpu3.dcache.mem_side::system.l2.cpu_side    104708640                       # Packet count per connected master and slave (bytes)
system.tol2bus.pkt_count::total             420020510                       # Packet count per connected master and slave (bytes)
system.tol2bus.pkt_size_system.cpu0.icache.mem_side::system.l2.cpu_side     19855744                       # Cumulative packet size per connected master and slave (bytes)
system.tol2bus.pkt_size_system.cpu0.dcache.mem_side::system.l2.cpu_side   4475826176                       # Cumulative packet size per connected master and slave (bytes)
system.tol2bus.pkt_size_system.cpu1.icache.mem_side::system.l2.cpu_side      4603264                       # Cumulative packet size per connected master and slave (bytes)
system.tol2bus.pkt_size_system.cpu1.dcache.mem_side::system.l2.cpu_side   4457123264                       # Cumulative packet size per connected master and slave (bytes)
system.tol2bus.pkt_size_system.cpu2.icache.mem_side::system.l2.cpu_side      4476544                       # Cumulative packet size per connected master and slave (bytes)
system.tol2bus.pkt_size_system.cpu2.dcache.mem_side::system.l2.cpu_side   4461080576                       # Cumulative packet size per connected master and slave (bytes)
system.tol2bus.pkt_size_system.cpu3.icache.mem_side::system.l2.cpu_side      4637824                       # Cumulative packet size per connected master and slave (bytes)
system.tol2bus.pkt_size_system.cpu3.dcache.mem_side::system.l2.cpu_side   4458983040                       # Cumulative packet size per connected master and slave (bytes)
system.tol2bus.pkt_size::total            17886586432                       # Cumulative packet size per connected master and slave (bytes)
system.tol2bus.snoops                       236422780                       # Total snoops (count)
system.tol2bus.snoopTraffic                 316609024                       # Total snoop traffic (bytes)
system.tol2bus.snoop_fanout::samples        376220497                       # Request fanout histogram
system.tol2bus.snoop_fanout::mean            0.420903                       # Request fanout histogram
system.tol2bus.snoop_fanout::stdev           0.594510                       # Request fanout histogram
system.tol2bus.snoop_fanout::underflows             0      0.00%      0.00% # Request fanout histogram
system.tol2bus.snoop_fanout::0              235277561     62.54%     62.54% # Request fanout histogram
system.tol2bus.snoop_fanout::1              126381358     33.59%     96.13% # Request fanout histogram
system.tol2bus.snoop_fanout::2               12092514      3.21%     99.34% # Request fanout histogram
system.tol2bus.snoop_fanout::3                2090479      0.56%     99.90% # Request fanout histogram
system.tol2bus.snoop_fanout::4                 378585      0.10%    100.00% # Request fanout histogram
system.tol2bus.snoop_fanout::5                      0      0.00%    100.00% # Request fanout histogram
system.tol2bus.snoop_fanout::6                      0      0.00%    100.00% # Request fanout histogram
system.tol2bus.snoop_fanout::7                      0      0.00%    100.00% # Request fanout histogram
system.tol2bus.snoop_fanout::8                      0      0.00%    100.00% # Request fanout histogram
system.tol2bus.snoop_fanout::overflows              0      0.00%    100.00% # Request fanout histogram
system.tol2bus.snoop_fanout::min_value              0                       # Request fanout histogram
system.tol2bus.snoop_fanout::max_value              4                       # Request fanout histogram
system.tol2bus.snoop_fanout::total          376220497                       # Request fanout histogram
system.tol2bus.reqLayer0.occupancy       279850682860                       # Layer occupancy (ticks)
system.tol2bus.reqLayer0.utilization             26.1                       # Layer utilization (%)
system.tol2bus.respLayer5.occupancy       52801326860                       # Layer occupancy (ticks)
system.tol2bus.respLayer5.utilization             4.9                       # Layer utilization (%)
system.tol2bus.respLayer4.occupancy          54970482                       # Layer occupancy (ticks)
system.tol2bus.respLayer4.utilization             0.0                       # Layer utilization (%)
system.tol2bus.respLayer7.occupancy       52780084944                       # Layer occupancy (ticks)
system.tol2bus.respLayer7.utilization             4.9                       # Layer utilization (%)
system.tol2bus.respLayer6.occupancy          57133348                       # Layer occupancy (ticks)
system.tol2bus.respLayer6.utilization             0.0                       # Layer utilization (%)
system.tol2bus.respLayer1.occupancy       52979950962                       # Layer occupancy (ticks)
system.tol2bus.respLayer1.utilization             4.9                       # Layer utilization (%)
system.tol2bus.respLayer0.occupancy         233267059                       # Layer occupancy (ticks)
system.tol2bus.respLayer0.utilization             0.0                       # Layer utilization (%)
system.tol2bus.respLayer3.occupancy       52758700484                       # Layer occupancy (ticks)
system.tol2bus.respLayer3.utilization             4.9                       # Layer utilization (%)
system.tol2bus.respLayer2.occupancy          56821026                       # Layer occupancy (ticks)
system.tol2bus.respLayer2.utilization             0.0                       # Layer utilization (%)

---------- End Simulation Statistics   ----------
