
---------- Begin Simulation Statistics ----------
final_tick                               581352282000                       # Number of ticks from beginning of simulation (restored from checkpoints and never reset)
host_inst_rate                                  79419                       # Simulator instruction rate (inst/s)
host_mem_usage                                 701388                       # Number of bytes of host memory used
host_op_rate                                    79684                       # Simulator op (including micro ops) rate (op/s)
host_seconds                                  7712.92                       # Real time elapsed on the host
host_tick_rate                               75373855                       # Simulator tick rate (ticks/s)
sim_freq                                 1000000000000                       # Frequency of simulated ticks
sim_insts                                   612555358                       # Number of instructions simulated
sim_ops                                     614592939                       # Number of ops (including micro ops) simulated
sim_seconds                                  0.581352                       # Number of seconds simulated
sim_ticks                                581352282000                       # Number of ticks simulated
system.cpu0.branchPred.BTBCorrect                   0                       # Number of correct BTB predictions (this stat may not work properly.
system.cpu0.branchPred.BTBHitPct            87.413851                       # BTB Hit Percentage
system.cpu0.branchPred.BTBHits               80020950                       # Number of BTB hits
system.cpu0.branchPred.BTBLookups            91542644                       # Number of BTB lookups
system.cpu0.branchPred.RASInCorrect                 0                       # Number of incorrect RAS predictions.
system.cpu0.branchPred.condIncorrect          8770727                       # Number of conditional branches incorrect
system.cpu0.branchPred.condPredicted        125896314                       # Number of conditional branches predicted
system.cpu0.branchPred.indirectHits          10500830                       # Number of indirect target hits.
system.cpu0.branchPred.indirectLookups       10736785                       # Number of indirect predictor lookups.
system.cpu0.branchPred.indirectMisses          235955                       # Number of indirect misses.
system.cpu0.branchPred.lookups              160230422                       # Number of BP lookups
system.cpu0.branchPred.usedRAS                      0                       # Number of times the RAS was used to get a target.
system.cpu0.branchPredindirectMispredicted      1064500                       # Number of mispredicted indirect branches.
system.cpu0.commit.amos                       1018194                       # Number of atomic instructions committed
system.cpu0.commit.branchMispredicts          5807587                       # The number of times a branch was mispredicted
system.cpu0.commit.branches                 143206557                       # Number of branches committed
system.cpu0.commit.bw_lim_events             14720126                       # number cycles where commit BW limit reached
system.cpu0.commit.commitNonSpecStalls        3058459                       # The number of times commit has been forced to stall to communicate backwards
system.cpu0.commit.commitSquashedInsts       51235309                       # The number of squashed insts skipped by commit
system.cpu0.commit.committedInsts           580291220                       # Number of instructions committed
system.cpu0.commit.committedOps             581310699                       # Number of ops (including micro ops) committed
system.cpu0.commit.committed_per_cycle::samples   1071094884                       # Number of insts commited each cycle
system.cpu0.commit.committed_per_cycle::mean     0.542726                       # Number of insts commited each cycle
system.cpu0.commit.committed_per_cycle::stdev     1.280036                       # Number of insts commited each cycle
system.cpu0.commit.committed_per_cycle::underflows            0      0.00%      0.00% # Number of insts commited each cycle
system.cpu0.commit.committed_per_cycle::0    783997125     73.20%     73.20% # Number of insts commited each cycle
system.cpu0.commit.committed_per_cycle::1    169271729     15.80%     89.00% # Number of insts commited each cycle
system.cpu0.commit.committed_per_cycle::2     45519016      4.25%     93.25% # Number of insts commited each cycle
system.cpu0.commit.committed_per_cycle::3     40859296      3.81%     97.06% # Number of insts commited each cycle
system.cpu0.commit.committed_per_cycle::4      9592782      0.90%     97.96% # Number of insts commited each cycle
system.cpu0.commit.committed_per_cycle::5      2849622      0.27%     98.23% # Number of insts commited each cycle
system.cpu0.commit.committed_per_cycle::6      1953512      0.18%     98.41% # Number of insts commited each cycle
system.cpu0.commit.committed_per_cycle::7      2331676      0.22%     98.63% # Number of insts commited each cycle
system.cpu0.commit.committed_per_cycle::8     14720126      1.37%    100.00% # Number of insts commited each cycle
system.cpu0.commit.committed_per_cycle::overflows            0      0.00%    100.00% # Number of insts commited each cycle
system.cpu0.commit.committed_per_cycle::min_value            0                       # Number of insts commited each cycle
system.cpu0.commit.committed_per_cycle::max_value            8                       # Number of insts commited each cycle
system.cpu0.commit.committed_per_cycle::total   1071094884                       # Number of insts commited each cycle
system.cpu0.commit.fp_insts                        50                       # Number of committed floating point instructions.
system.cpu0.commit.function_calls            11887254                       # Number of function calls committed.
system.cpu0.commit.int_insts                561288557                       # Number of committed integer instructions.
system.cpu0.commit.loads                    179952905                       # Number of loads committed
system.cpu0.commit.membars                    2037576                       # Number of memory barriers committed
system.cpu0.commit.op_class_0::No_OpClass      2037582      0.35%      0.35% # Class of committed instruction
system.cpu0.commit.op_class_0::IntAlu       322231598     55.43%     55.78% # Class of committed instruction
system.cpu0.commit.op_class_0::IntMult        4135822      0.71%     56.49% # Class of committed instruction
system.cpu0.commit.op_class_0::IntDiv         1017773      0.18%     56.67% # Class of committed instruction
system.cpu0.commit.op_class_0::FloatAdd             0      0.00%     56.67% # Class of committed instruction
system.cpu0.commit.op_class_0::FloatCmp             4      0.00%     56.67% # Class of committed instruction
system.cpu0.commit.op_class_0::FloatCvt            12      0.00%     56.67% # Class of committed instruction
system.cpu0.commit.op_class_0::FloatMult            0      0.00%     56.67% # Class of committed instruction
system.cpu0.commit.op_class_0::FloatMultAcc            0      0.00%     56.67% # Class of committed instruction
system.cpu0.commit.op_class_0::FloatDiv             2      0.00%     56.67% # Class of committed instruction
system.cpu0.commit.op_class_0::FloatMisc            4      0.00%     56.67% # Class of committed instruction
system.cpu0.commit.op_class_0::FloatSqrt            0      0.00%     56.67% # Class of committed instruction
system.cpu0.commit.op_class_0::SimdAdd              0      0.00%     56.67% # Class of committed instruction
system.cpu0.commit.op_class_0::SimdAddAcc            0      0.00%     56.67% # Class of committed instruction
system.cpu0.commit.op_class_0::SimdAlu              0      0.00%     56.67% # Class of committed instruction
system.cpu0.commit.op_class_0::SimdCmp              0      0.00%     56.67% # Class of committed instruction
system.cpu0.commit.op_class_0::SimdCvt              0      0.00%     56.67% # Class of committed instruction
system.cpu0.commit.op_class_0::SimdMisc             0      0.00%     56.67% # Class of committed instruction
system.cpu0.commit.op_class_0::SimdMult             0      0.00%     56.67% # Class of committed instruction
system.cpu0.commit.op_class_0::SimdMultAcc            0      0.00%     56.67% # Class of committed instruction
system.cpu0.commit.op_class_0::SimdShift            0      0.00%     56.67% # Class of committed instruction
system.cpu0.commit.op_class_0::SimdShiftAcc            0      0.00%     56.67% # Class of committed instruction
system.cpu0.commit.op_class_0::SimdDiv              0      0.00%     56.67% # Class of committed instruction
system.cpu0.commit.op_class_0::SimdSqrt             0      0.00%     56.67% # Class of committed instruction
system.cpu0.commit.op_class_0::SimdFloatAdd            0      0.00%     56.67% # Class of committed instruction
system.cpu0.commit.op_class_0::SimdFloatAlu            0      0.00%     56.67% # Class of committed instruction
system.cpu0.commit.op_class_0::SimdFloatCmp            0      0.00%     56.67% # Class of committed instruction
system.cpu0.commit.op_class_0::SimdFloatCvt            0      0.00%     56.67% # Class of committed instruction
system.cpu0.commit.op_class_0::SimdFloatDiv            0      0.00%     56.67% # Class of committed instruction
system.cpu0.commit.op_class_0::SimdFloatMisc            0      0.00%     56.67% # Class of committed instruction
system.cpu0.commit.op_class_0::SimdFloatMult            0      0.00%     56.67% # Class of committed instruction
system.cpu0.commit.op_class_0::SimdFloatMultAcc            0      0.00%     56.67% # Class of committed instruction
system.cpu0.commit.op_class_0::SimdFloatSqrt            0      0.00%     56.67% # Class of committed instruction
system.cpu0.commit.op_class_0::SimdReduceAdd            0      0.00%     56.67% # Class of committed instruction
system.cpu0.commit.op_class_0::SimdReduceAlu            0      0.00%     56.67% # Class of committed instruction
system.cpu0.commit.op_class_0::SimdReduceCmp            0      0.00%     56.67% # Class of committed instruction
system.cpu0.commit.op_class_0::SimdFloatReduceAdd            0      0.00%     56.67% # Class of committed instruction
system.cpu0.commit.op_class_0::SimdFloatReduceCmp            0      0.00%     56.67% # Class of committed instruction
system.cpu0.commit.op_class_0::SimdAes              0      0.00%     56.67% # Class of committed instruction
system.cpu0.commit.op_class_0::SimdAesMix            0      0.00%     56.67% # Class of committed instruction
system.cpu0.commit.op_class_0::SimdSha1Hash            0      0.00%     56.67% # Class of committed instruction
system.cpu0.commit.op_class_0::SimdSha1Hash2            0      0.00%     56.67% # Class of committed instruction
system.cpu0.commit.op_class_0::SimdSha256Hash            0      0.00%     56.67% # Class of committed instruction
system.cpu0.commit.op_class_0::SimdSha256Hash2            0      0.00%     56.67% # Class of committed instruction
system.cpu0.commit.op_class_0::SimdShaSigma2            0      0.00%     56.67% # Class of committed instruction
system.cpu0.commit.op_class_0::SimdShaSigma3            0      0.00%     56.67% # Class of committed instruction
system.cpu0.commit.op_class_0::SimdPredAlu            0      0.00%     56.67% # Class of committed instruction
system.cpu0.commit.op_class_0::MemRead      180971091     31.13%     87.80% # Class of committed instruction
system.cpu0.commit.op_class_0::MemWrite      70916783     12.20%    100.00% # Class of committed instruction
system.cpu0.commit.op_class_0::FloatMemRead            8      0.00%    100.00% # Class of committed instruction
system.cpu0.commit.op_class_0::FloatMemWrite           20      0.00%    100.00% # Class of committed instruction
system.cpu0.commit.op_class_0::IprAccess            0      0.00%    100.00% # Class of committed instruction
system.cpu0.commit.op_class_0::InstPrefetch            0      0.00%    100.00% # Class of committed instruction
system.cpu0.commit.op_class_0::total        581310699                       # Class of committed instruction
system.cpu0.commit.refs                     251887902                       # Number of memory references committed
system.cpu0.commit.swp_count                        0                       # Number of s/w prefetches committed
system.cpu0.commit.vec_insts                        0                       # Number of committed Vector instructions.
system.cpu0.committedInsts                  580291220                       # Number of Instructions Simulated
system.cpu0.committedOps                    581310699                       # Number of Ops (including micro ops) Simulated
system.cpu0.cpi                              1.983806                       # CPI: Cycles Per Instruction
system.cpu0.cpi_total                        1.983806                       # CPI: Total CPI of All Threads
system.cpu0.decode.BlockedCycles            161071926                       # Number of cycles decode is blocked
system.cpu0.decode.BranchMispred              2976441                       # Number of times decode detected a branch misprediction
system.cpu0.decode.BranchResolved            79051144                       # Number of times decode resolved a branch
system.cpu0.decode.DecodedInsts             649040153                       # Number of instructions handled by decode
system.cpu0.decode.IdleCycles               471549375                       # Number of cycles decode is idle
system.cpu0.decode.RunCycles                439089580                       # Number of cycles decode is running
system.cpu0.decode.SquashCycles               5814975                       # Number of cycles decode is squashing
system.cpu0.decode.SquashedInsts              8441054                       # Number of squashed instructions handled by decode
system.cpu0.decode.UnblockCycles              3363846                       # Number of cycles decode is unblocking
system.cpu0.dtb.accesses                            0                       # DTB accesses
system.cpu0.dtb.hits                                0                       # DTB hits
system.cpu0.dtb.misses                              0                       # DTB misses
system.cpu0.dtb.read_accesses                       0                       # DTB read accesses
system.cpu0.dtb.read_hits                           0                       # DTB read hits
system.cpu0.dtb.read_misses                         0                       # DTB read misses
system.cpu0.dtb.write_accesses                      0                       # DTB write accesses
system.cpu0.dtb.write_hits                          0                       # DTB write hits
system.cpu0.dtb.write_misses                        0                       # DTB write misses
system.cpu0.fetch.Branches                  160230422                       # Number of branches that fetch encountered
system.cpu0.fetch.CacheLines                116848911                       # Number of cache lines fetched
system.cpu0.fetch.Cycles                    613259728                       # Number of cycles fetch has run and was not squashing or blocked
system.cpu0.fetch.IcacheSquashes              2338104                       # Number of outstanding Icache misses that were squashed
system.cpu0.fetch.IcacheWaitRetryStallCycles           50                       # Number of stall cycles due to full MSHR
system.cpu0.fetch.Insts                     669224508                       # Number of instructions fetch has processed
system.cpu0.fetch.MiscStallCycles                  77                       # Number of cycles fetch has spent waiting on interrupts, or bad addresses, or out of MSHRs
system.cpu0.fetch.PendingTrapStallCycles          419                       # Number of stall cycles due to pending traps
system.cpu0.fetch.SquashCycles               17556360                       # Number of cycles fetch has spent squashing
system.cpu0.fetch.branchRate                 0.139187                       # Number of branch fetches per cycle
system.cpu0.fetch.icacheStallCycles         458851248                       # Number of cycles fetch is stalled on an Icache miss
system.cpu0.fetch.predictedBranches          90521780                       # Number of branches that fetch has predicted taken
system.cpu0.fetch.rate                       0.581335                       # Number of inst fetches per cycle
system.cpu0.fetch.rateDist::samples        1080889702                       # Number of instructions fetched each cycle (Total)
system.cpu0.fetch.rateDist::mean             0.621699                       # Number of instructions fetched each cycle (Total)
system.cpu0.fetch.rateDist::stdev            0.921975                       # Number of instructions fetched each cycle (Total)
system.cpu0.fetch.rateDist::underflows              0      0.00%      0.00% # Number of instructions fetched each cycle (Total)
system.cpu0.fetch.rateDist::0               616491983     57.04%     57.04% # Number of instructions fetched each cycle (Total)
system.cpu0.fetch.rateDist::1               340249634     31.48%     88.51% # Number of instructions fetched each cycle (Total)
system.cpu0.fetch.rateDist::2                65111048      6.02%     94.54% # Number of instructions fetched each cycle (Total)
system.cpu0.fetch.rateDist::3                45029691      4.17%     98.70% # Number of instructions fetched each cycle (Total)
system.cpu0.fetch.rateDist::4                 8014976      0.74%     99.45% # Number of instructions fetched each cycle (Total)
system.cpu0.fetch.rateDist::5                 3636359      0.34%     99.78% # Number of instructions fetched each cycle (Total)
system.cpu0.fetch.rateDist::6                  310843      0.03%     99.81% # Number of instructions fetched each cycle (Total)
system.cpu0.fetch.rateDist::7                 2041282      0.19%    100.00% # Number of instructions fetched each cycle (Total)
system.cpu0.fetch.rateDist::8                    3886      0.00%    100.00% # Number of instructions fetched each cycle (Total)
system.cpu0.fetch.rateDist::overflows               0      0.00%    100.00% # Number of instructions fetched each cycle (Total)
system.cpu0.fetch.rateDist::min_value               0                       # Number of instructions fetched each cycle (Total)
system.cpu0.fetch.rateDist::max_value               8                       # Number of instructions fetched each cycle (Total)
system.cpu0.fetch.rateDist::total          1080889702                       # Number of instructions fetched each cycle (Total)
system.cpu0.fp_regfile_reads                       44                       # number of floating regfile reads
system.cpu0.fp_regfile_writes                      22                       # number of floating regfile writes
system.cpu0.idleCycles                       70295269                       # Total number of cycles that the CPU has spent unscheduled due to idling
system.cpu0.iew.branchMispredicts             5875807                       # Number of branch mispredicts detected at execute
system.cpu0.iew.exec_branches               148757391                       # Number of branches executed
system.cpu0.iew.exec_nop                            0                       # number of nop insts executed
system.cpu0.iew.exec_rate                    0.528416                       # Inst execution rate
system.cpu0.iew.exec_refs                   265086474                       # number of memory reference insts executed
system.cpu0.iew.exec_stores                  74420384                       # Number of stores executed
system.cpu0.iew.exec_swp                            0                       # number of swp insts executed
system.cpu0.iew.iewBlockCycles              130911287                       # Number of cycles IEW is blocking
system.cpu0.iew.iewDispLoadInsts            198242385                       # Number of dispatched load instructions
system.cpu0.iew.iewDispNonSpecInsts           2025532                       # Number of dispatched non-speculative instructions
system.cpu0.iew.iewDispSquashedInsts          2869125                       # Number of squashed instructions skipped by dispatch
system.cpu0.iew.iewDispStoreInsts            77195505                       # Number of dispatched store instructions
system.cpu0.iew.iewDispatchedInsts          632528763                       # Number of instructions dispatched to IQ
system.cpu0.iew.iewExecLoadInsts            190666090                       # Number of load instructions executed
system.cpu0.iew.iewExecSquashedInsts          5077431                       # Number of squashed instructions skipped in execute
system.cpu0.iew.iewExecutedInsts            608304130                       # Number of executed instructions
system.cpu0.iew.iewIQFullEvents               1056558                       # Number of times the IQ has become full, causing a stall
system.cpu0.iew.iewIdleCycles                       0                       # Number of cycles IEW is idle
system.cpu0.iew.iewLSQFullEvents              2821194                       # Number of times the LSQ has become full, causing a stall
system.cpu0.iew.iewSquashCycles               5814975                       # Number of cycles IEW is squashing
system.cpu0.iew.iewUnblockCycles              4852262                       # Number of cycles IEW is unblocking
system.cpu0.iew.lsq.thread0.blockedLoads            0                       # Number of blocked loads due to partial load-store forwarding
system.cpu0.iew.lsq.thread0.cacheBlocked        80495                       # Number of times an access to memory failed due to the cache being blocked
system.cpu0.iew.lsq.thread0.forwLoads         8144973                       # Number of loads that had data forwarded from stores
system.cpu0.iew.lsq.thread0.ignoredResponses        30174                       # Number of memory responses ignored because the instruction is squashed
system.cpu0.iew.lsq.thread0.invAddrLoads            0                       # Number of loads ignored due to an invalid address
system.cpu0.iew.lsq.thread0.invAddrSwpfs            0                       # Number of software prefetches ignored due to an invalid address
system.cpu0.iew.lsq.thread0.memOrderViolation         7910                       # Number of memory ordering violations
system.cpu0.iew.lsq.thread0.rescheduledLoads      2370940                       # Number of loads that were rescheduled
system.cpu0.iew.lsq.thread0.squashedLoads     18289480                       # Number of loads squashed
system.cpu0.iew.lsq.thread0.squashedStores      5260508                       # Number of stores squashed
system.cpu0.iew.memOrderViolationEvents          7910                       # Number of memory order violations
system.cpu0.iew.predictedNotTakenIncorrect       864145                       # Number of branches that were predicted not taken incorrectly
system.cpu0.iew.predictedTakenIncorrect       5011662                       # Number of branches that were predicted taken incorrectly
system.cpu0.iew.wb_consumers                255520610                       # num instructions consuming a value
system.cpu0.iew.wb_count                    603197855                       # cumulative count of insts written-back
system.cpu0.iew.wb_fanout                    0.879133                       # average fanout of values written-back
system.cpu0.iew.wb_producers                224636516                       # num instructions producing a value
system.cpu0.iew.wb_rate                      0.523980                       # insts written-back per cycle
system.cpu0.iew.wb_sent                     603251838                       # cumulative count of insts sent to commit
system.cpu0.int_regfile_reads               743503153                       # number of integer regfile reads
system.cpu0.int_regfile_writes              384579079                       # number of integer regfile writes
system.cpu0.ipc                              0.504082                       # IPC: Instructions Per Cycle
system.cpu0.ipc_total                        0.504082                       # IPC: Total IPC of All Threads
system.cpu0.iq.FU_type_0::No_OpClass          2038498      0.33%      0.33% # Type of FU issued
system.cpu0.iq.FU_type_0::IntAlu            338810475     55.24%     55.57% # Type of FU issued
system.cpu0.iq.FU_type_0::IntMult             4139896      0.67%     56.24% # Type of FU issued
system.cpu0.iq.FU_type_0::IntDiv              1018054      0.17%     56.41% # Type of FU issued
system.cpu0.iq.FU_type_0::FloatAdd                  0      0.00%     56.41% # Type of FU issued
system.cpu0.iq.FU_type_0::FloatCmp                  4      0.00%     56.41% # Type of FU issued
system.cpu0.iq.FU_type_0::FloatCvt                 12      0.00%     56.41% # Type of FU issued
system.cpu0.iq.FU_type_0::FloatMult                 0      0.00%     56.41% # Type of FU issued
system.cpu0.iq.FU_type_0::FloatMultAcc              0      0.00%     56.41% # Type of FU issued
system.cpu0.iq.FU_type_0::FloatDiv                  2      0.00%     56.41% # Type of FU issued
system.cpu0.iq.FU_type_0::FloatMisc                 4      0.00%     56.41% # Type of FU issued
system.cpu0.iq.FU_type_0::FloatSqrt                 0      0.00%     56.41% # Type of FU issued
system.cpu0.iq.FU_type_0::SimdAdd                   0      0.00%     56.41% # Type of FU issued
system.cpu0.iq.FU_type_0::SimdAddAcc                0      0.00%     56.41% # Type of FU issued
system.cpu0.iq.FU_type_0::SimdAlu                   0      0.00%     56.41% # Type of FU issued
system.cpu0.iq.FU_type_0::SimdCmp                   0      0.00%     56.41% # Type of FU issued
system.cpu0.iq.FU_type_0::SimdCvt                   0      0.00%     56.41% # Type of FU issued
system.cpu0.iq.FU_type_0::SimdMisc                  0      0.00%     56.41% # Type of FU issued
system.cpu0.iq.FU_type_0::SimdMult                  0      0.00%     56.41% # Type of FU issued
system.cpu0.iq.FU_type_0::SimdMultAcc               0      0.00%     56.41% # Type of FU issued
system.cpu0.iq.FU_type_0::SimdShift                 0      0.00%     56.41% # Type of FU issued
system.cpu0.iq.FU_type_0::SimdShiftAcc              0      0.00%     56.41% # Type of FU issued
system.cpu0.iq.FU_type_0::SimdDiv                   0      0.00%     56.41% # Type of FU issued
system.cpu0.iq.FU_type_0::SimdSqrt                  0      0.00%     56.41% # Type of FU issued
system.cpu0.iq.FU_type_0::SimdFloatAdd              0      0.00%     56.41% # Type of FU issued
system.cpu0.iq.FU_type_0::SimdFloatAlu              0      0.00%     56.41% # Type of FU issued
system.cpu0.iq.FU_type_0::SimdFloatCmp              0      0.00%     56.41% # Type of FU issued
system.cpu0.iq.FU_type_0::SimdFloatCvt              0      0.00%     56.41% # Type of FU issued
system.cpu0.iq.FU_type_0::SimdFloatDiv              0      0.00%     56.41% # Type of FU issued
system.cpu0.iq.FU_type_0::SimdFloatMisc             0      0.00%     56.41% # Type of FU issued
system.cpu0.iq.FU_type_0::SimdFloatMult             0      0.00%     56.41% # Type of FU issued
system.cpu0.iq.FU_type_0::SimdFloatMultAcc            0      0.00%     56.41% # Type of FU issued
system.cpu0.iq.FU_type_0::SimdFloatSqrt             0      0.00%     56.41% # Type of FU issued
system.cpu0.iq.FU_type_0::SimdReduceAdd             0      0.00%     56.41% # Type of FU issued
system.cpu0.iq.FU_type_0::SimdReduceAlu             0      0.00%     56.41% # Type of FU issued
system.cpu0.iq.FU_type_0::SimdReduceCmp             0      0.00%     56.41% # Type of FU issued
system.cpu0.iq.FU_type_0::SimdFloatReduceAdd            0      0.00%     56.41% # Type of FU issued
system.cpu0.iq.FU_type_0::SimdFloatReduceCmp            0      0.00%     56.41% # Type of FU issued
system.cpu0.iq.FU_type_0::SimdAes                   0      0.00%     56.41% # Type of FU issued
system.cpu0.iq.FU_type_0::SimdAesMix                0      0.00%     56.41% # Type of FU issued
system.cpu0.iq.FU_type_0::SimdSha1Hash              0      0.00%     56.41% # Type of FU issued
system.cpu0.iq.FU_type_0::SimdSha1Hash2             0      0.00%     56.41% # Type of FU issued
system.cpu0.iq.FU_type_0::SimdSha256Hash            0      0.00%     56.41% # Type of FU issued
system.cpu0.iq.FU_type_0::SimdSha256Hash2            0      0.00%     56.41% # Type of FU issued
system.cpu0.iq.FU_type_0::SimdShaSigma2             0      0.00%     56.41% # Type of FU issued
system.cpu0.iq.FU_type_0::SimdShaSigma3             0      0.00%     56.41% # Type of FU issued
system.cpu0.iq.FU_type_0::SimdPredAlu               0      0.00%     56.41% # Type of FU issued
system.cpu0.iq.FU_type_0::MemRead           193777193     31.59%     88.00% # Type of FU issued
system.cpu0.iq.FU_type_0::MemWrite           73597395     12.00%    100.00% # Type of FU issued
system.cpu0.iq.FU_type_0::FloatMemRead              9      0.00%    100.00% # Type of FU issued
system.cpu0.iq.FU_type_0::FloatMemWrite            20      0.00%    100.00% # Type of FU issued
system.cpu0.iq.FU_type_0::IprAccess                 0      0.00%    100.00% # Type of FU issued
system.cpu0.iq.FU_type_0::InstPrefetch              0      0.00%    100.00% # Type of FU issued
system.cpu0.iq.FU_type_0::total             613381562                       # Type of FU issued
system.cpu0.iq.fp_alu_accesses                     53                       # Number of floating point alu accesses
system.cpu0.iq.fp_inst_queue_reads                104                       # Number of floating instruction queue reads
system.cpu0.iq.fp_inst_queue_wakeup_accesses           50                       # Number of floating instruction queue wakeup accesses
system.cpu0.iq.fp_inst_queue_writes                52                       # Number of floating instruction queue writes
system.cpu0.iq.fu_busy_cnt                    1376108                       # FU busy when requested
system.cpu0.iq.fu_busy_rate                  0.002243                       # FU busy rate (busy events/executed inst)
system.cpu0.iq.fu_full::No_OpClass                  0      0.00%      0.00% # attempts to use FU when none available
system.cpu0.iq.fu_full::IntAlu                 235330     17.10%     17.10% # attempts to use FU when none available
system.cpu0.iq.fu_full::IntMult                     0      0.00%     17.10% # attempts to use FU when none available
system.cpu0.iq.fu_full::IntDiv                      0      0.00%     17.10% # attempts to use FU when none available
system.cpu0.iq.fu_full::FloatAdd                    0      0.00%     17.10% # attempts to use FU when none available
system.cpu0.iq.fu_full::FloatCmp                    0      0.00%     17.10% # attempts to use FU when none available
system.cpu0.iq.fu_full::FloatCvt                    0      0.00%     17.10% # attempts to use FU when none available
system.cpu0.iq.fu_full::FloatMult                   0      0.00%     17.10% # attempts to use FU when none available
system.cpu0.iq.fu_full::FloatMultAcc                0      0.00%     17.10% # attempts to use FU when none available
system.cpu0.iq.fu_full::FloatDiv                    0      0.00%     17.10% # attempts to use FU when none available
system.cpu0.iq.fu_full::FloatMisc                   0      0.00%     17.10% # attempts to use FU when none available
system.cpu0.iq.fu_full::FloatSqrt                   0      0.00%     17.10% # attempts to use FU when none available
system.cpu0.iq.fu_full::SimdAdd                     0      0.00%     17.10% # attempts to use FU when none available
system.cpu0.iq.fu_full::SimdAddAcc                  0      0.00%     17.10% # attempts to use FU when none available
system.cpu0.iq.fu_full::SimdAlu                     0      0.00%     17.10% # attempts to use FU when none available
system.cpu0.iq.fu_full::SimdCmp                     0      0.00%     17.10% # attempts to use FU when none available
system.cpu0.iq.fu_full::SimdCvt                     0      0.00%     17.10% # attempts to use FU when none available
system.cpu0.iq.fu_full::SimdMisc                    0      0.00%     17.10% # attempts to use FU when none available
system.cpu0.iq.fu_full::SimdMult                    0      0.00%     17.10% # attempts to use FU when none available
system.cpu0.iq.fu_full::SimdMultAcc                 0      0.00%     17.10% # attempts to use FU when none available
system.cpu0.iq.fu_full::SimdShift                   0      0.00%     17.10% # attempts to use FU when none available
system.cpu0.iq.fu_full::SimdShiftAcc                0      0.00%     17.10% # attempts to use FU when none available
system.cpu0.iq.fu_full::SimdDiv                     0      0.00%     17.10% # attempts to use FU when none available
system.cpu0.iq.fu_full::SimdSqrt                    0      0.00%     17.10% # attempts to use FU when none available
system.cpu0.iq.fu_full::SimdFloatAdd                0      0.00%     17.10% # attempts to use FU when none available
system.cpu0.iq.fu_full::SimdFloatAlu                0      0.00%     17.10% # attempts to use FU when none available
system.cpu0.iq.fu_full::SimdFloatCmp                0      0.00%     17.10% # attempts to use FU when none available
system.cpu0.iq.fu_full::SimdFloatCvt                0      0.00%     17.10% # attempts to use FU when none available
system.cpu0.iq.fu_full::SimdFloatDiv                0      0.00%     17.10% # attempts to use FU when none available
system.cpu0.iq.fu_full::SimdFloatMisc               0      0.00%     17.10% # attempts to use FU when none available
system.cpu0.iq.fu_full::SimdFloatMult               0      0.00%     17.10% # attempts to use FU when none available
system.cpu0.iq.fu_full::SimdFloatMultAcc            0      0.00%     17.10% # attempts to use FU when none available
system.cpu0.iq.fu_full::SimdFloatSqrt               0      0.00%     17.10% # attempts to use FU when none available
system.cpu0.iq.fu_full::SimdReduceAdd               0      0.00%     17.10% # attempts to use FU when none available
system.cpu0.iq.fu_full::SimdReduceAlu               0      0.00%     17.10% # attempts to use FU when none available
system.cpu0.iq.fu_full::SimdReduceCmp               0      0.00%     17.10% # attempts to use FU when none available
system.cpu0.iq.fu_full::SimdFloatReduceAdd            0      0.00%     17.10% # attempts to use FU when none available
system.cpu0.iq.fu_full::SimdFloatReduceCmp            0      0.00%     17.10% # attempts to use FU when none available
system.cpu0.iq.fu_full::SimdAes                     0      0.00%     17.10% # attempts to use FU when none available
system.cpu0.iq.fu_full::SimdAesMix                  0      0.00%     17.10% # attempts to use FU when none available
system.cpu0.iq.fu_full::SimdSha1Hash                0      0.00%     17.10% # attempts to use FU when none available
system.cpu0.iq.fu_full::SimdSha1Hash2               0      0.00%     17.10% # attempts to use FU when none available
system.cpu0.iq.fu_full::SimdSha256Hash              0      0.00%     17.10% # attempts to use FU when none available
system.cpu0.iq.fu_full::SimdSha256Hash2             0      0.00%     17.10% # attempts to use FU when none available
system.cpu0.iq.fu_full::SimdShaSigma2               0      0.00%     17.10% # attempts to use FU when none available
system.cpu0.iq.fu_full::SimdShaSigma3               0      0.00%     17.10% # attempts to use FU when none available
system.cpu0.iq.fu_full::SimdPredAlu                 0      0.00%     17.10% # attempts to use FU when none available
system.cpu0.iq.fu_full::MemRead                999796     72.65%     89.76% # attempts to use FU when none available
system.cpu0.iq.fu_full::MemWrite               140980     10.24%    100.00% # attempts to use FU when none available
system.cpu0.iq.fu_full::FloatMemRead                0      0.00%    100.00% # attempts to use FU when none available
system.cpu0.iq.fu_full::FloatMemWrite               2      0.00%    100.00% # attempts to use FU when none available
system.cpu0.iq.fu_full::IprAccess                   0      0.00%    100.00% # attempts to use FU when none available
system.cpu0.iq.fu_full::InstPrefetch                0      0.00%    100.00% # attempts to use FU when none available
system.cpu0.iq.int_alu_accesses             612719119                       # Number of integer alu accesses
system.cpu0.iq.int_inst_queue_reads        2309122909                       # Number of integer instruction queue reads
system.cpu0.iq.int_inst_queue_wakeup_accesses    603197805                       # Number of integer instruction queue wakeup accesses
system.cpu0.iq.int_inst_queue_writes        683753857                       # Number of integer instruction queue writes
system.cpu0.iq.iqInstsAdded                 626456321                       # Number of instructions added to the IQ (excludes non-spec)
system.cpu0.iq.iqInstsIssued                613381562                       # Number of instructions issued
system.cpu0.iq.iqNonSpecInstsAdded            6072442                       # Number of non-speculative instructions added to the IQ
system.cpu0.iq.iqSquashedInstsExamined       51218060                       # Number of squashed instructions iterated over during squash; mainly for profiling
system.cpu0.iq.iqSquashedInstsIssued            94080                       # Number of squashed instructions issued
system.cpu0.iq.iqSquashedNonSpecRemoved       3013983                       # Number of squashed non-spec instructions that were removed
system.cpu0.iq.iqSquashedOperandsExamined     29937754                       # Number of squashed operands that are examined and possibly removed from graph
system.cpu0.iq.issued_per_cycle::samples   1080889702                       # Number of insts issued each cycle
system.cpu0.iq.issued_per_cycle::mean        0.567478                       # Number of insts issued each cycle
system.cpu0.iq.issued_per_cycle::stdev       0.799575                       # Number of insts issued each cycle
system.cpu0.iq.issued_per_cycle::underflows            0      0.00%      0.00% # Number of insts issued each cycle
system.cpu0.iq.issued_per_cycle::0          631717125     58.44%     58.44% # Number of insts issued each cycle
system.cpu0.iq.issued_per_cycle::1          320838634     29.68%     88.13% # Number of insts issued each cycle
system.cpu0.iq.issued_per_cycle::2          101267011      9.37%     97.50% # Number of insts issued each cycle
system.cpu0.iq.issued_per_cycle::3           20690753      1.91%     99.41% # Number of insts issued each cycle
system.cpu0.iq.issued_per_cycle::4            5035752      0.47%     99.88% # Number of insts issued each cycle
system.cpu0.iq.issued_per_cycle::5             616238      0.06%     99.93% # Number of insts issued each cycle
system.cpu0.iq.issued_per_cycle::6             440650      0.04%     99.97% # Number of insts issued each cycle
system.cpu0.iq.issued_per_cycle::7             199763      0.02%     99.99% # Number of insts issued each cycle
system.cpu0.iq.issued_per_cycle::8              83776      0.01%    100.00% # Number of insts issued each cycle
system.cpu0.iq.issued_per_cycle::overflows            0      0.00%    100.00% # Number of insts issued each cycle
system.cpu0.iq.issued_per_cycle::min_value            0                       # Number of insts issued each cycle
system.cpu0.iq.issued_per_cycle::max_value            8                       # Number of insts issued each cycle
system.cpu0.iq.issued_per_cycle::total     1080889702                       # Number of insts issued each cycle
system.cpu0.iq.rate                          0.532826                       # Inst issue rate
system.cpu0.iq.vec_alu_accesses                     0                       # Number of vector alu accesses
system.cpu0.iq.vec_inst_queue_reads                 0                       # Number of vector instruction queue reads
system.cpu0.iq.vec_inst_queue_wakeup_accesses            0                       # Number of vector instruction queue wakeup accesses
system.cpu0.iq.vec_inst_queue_writes                0                       # Number of vector instruction queue writes
system.cpu0.itb.accesses                            0                       # DTB accesses
system.cpu0.itb.hits                                0                       # DTB hits
system.cpu0.itb.misses                              0                       # DTB misses
system.cpu0.itb.read_accesses                       0                       # DTB read accesses
system.cpu0.itb.read_hits                           0                       # DTB read hits
system.cpu0.itb.read_misses                         0                       # DTB read misses
system.cpu0.itb.write_accesses                      0                       # DTB write accesses
system.cpu0.itb.write_hits                          0                       # DTB write hits
system.cpu0.itb.write_misses                        0                       # DTB write misses
system.cpu0.memDep0.conflictingLoads         16795074                       # Number of conflicting loads.
system.cpu0.memDep0.conflictingStores         2891507                       # Number of conflicting stores.
system.cpu0.memDep0.insertedLoads           198242385                       # Number of loads inserted to the mem dependence unit.
system.cpu0.memDep0.insertedStores           77195505                       # Number of stores inserted to the mem dependence unit.
system.cpu0.misc_regfile_reads                    878                       # number of misc regfile reads
system.cpu0.misc_regfile_writes                    22                       # number of misc regfile writes
system.cpu0.numCycles                      1151184971                       # number of cpu cycles simulated
system.cpu0.numWorkItemsCompleted                   0                       # number of work items this cpu completed
system.cpu0.numWorkItemsStarted                     0                       # number of work items this cpu started
system.cpu0.quiesceCycles                    11521437                       # Total number of cycles that CPU has spent quiesced or waiting for an interrupt
system.cpu0.rename.BlockCycles              142846741                       # Number of cycles rename is blocking
system.cpu0.rename.CommittedMaps            370571847                       # Number of HB maps that are committed
system.cpu0.rename.IQFullEvents               6540794                       # Number of times rename has blocked due to IQ full
system.cpu0.rename.IdleCycles               478740901                       # Number of cycles rename is idle
system.cpu0.rename.LQFullEvents               5315073                       # Number of times rename has blocked due to LQ full
system.cpu0.rename.ROBFullEvents                 9997                       # Number of times rename has blocked due to ROB full
system.cpu0.rename.RenameLookups            782452648                       # Number of register rename lookups that rename has made
system.cpu0.rename.RenamedInsts             641235735                       # Number of instructions processed by rename
system.cpu0.rename.RenamedOperands          411734145                       # Number of destination operands rename has renamed
system.cpu0.rename.RunCycles                434056416                       # Number of cycles rename is running
system.cpu0.rename.SQFullEvents               6979580                       # Number of times rename has blocked due to SQ full
system.cpu0.rename.SquashCycles               5814975                       # Number of cycles rename is squashing
system.cpu0.rename.UnblockCycles             19349010                       # Number of cycles rename is unblocking
system.cpu0.rename.UndoneMaps                41162293                       # Number of HB maps that are undone due to squashing
system.cpu0.rename.fp_rename_lookups               44                       # Number of floating rename lookups
system.cpu0.rename.int_rename_lookups       782452604                       # Number of integer rename lookups
system.cpu0.rename.serializeStallCycles         81659                       # count of cycles rename stalled for serializing inst
system.cpu0.rename.serializingInsts              2804                       # count of serializing insts renamed
system.cpu0.rename.skidInsts                 13854695                       # count of insts added to the skid buffer
system.cpu0.rename.tempSerializingInsts          2760                       # count of temporary serializing insts renamed
system.cpu0.rob.rob_reads                  1688909859                       # The number of ROB reads
system.cpu0.rob.rob_writes                 1274901289                       # The number of ROB writes
system.cpu0.timesIdled                       15089216                       # Number of times that the entire CPU went into an idle state and unscheduled itself
system.cpu0.workload.numSyscalls                  845                       # Number of system calls
system.cpu1.branchPred.BTBCorrect                   0                       # Number of correct BTB predictions (this stat may not work properly.
system.cpu1.branchPred.BTBHitPct            73.775465                       # BTB Hit Percentage
system.cpu1.branchPred.BTBHits                4543628                       # Number of BTB hits
system.cpu1.branchPred.BTBLookups             6158725                       # Number of BTB lookups
system.cpu1.branchPred.RASInCorrect                 0                       # Number of incorrect RAS predictions.
system.cpu1.branchPred.condIncorrect           826750                       # Number of conditional branches incorrect
system.cpu1.branchPred.condPredicted          7798858                       # Number of conditional branches predicted
system.cpu1.branchPred.indirectHits            252948                       # Number of indirect target hits.
system.cpu1.branchPred.indirectLookups         408367                       # Number of indirect predictor lookups.
system.cpu1.branchPred.indirectMisses          155419                       # Number of indirect misses.
system.cpu1.branchPred.lookups                8783300                       # Number of BP lookups
system.cpu1.branchPred.usedRAS                      0                       # Number of times the RAS was used to get a target.
system.cpu1.branchPredindirectMispredicted         3251                       # Number of mispredicted indirect branches.
system.cpu1.commit.amos                       1017925                       # Number of atomic instructions committed
system.cpu1.commit.branchMispredicts           489902                       # The number of times a branch was mispredicted
system.cpu1.commit.branches                   7095651                       # Number of branches committed
system.cpu1.commit.bw_lim_events               821451                       # number cycles where commit BW limit reached
system.cpu1.commit.commitNonSpecStalls        3054436                       # The number of times commit has been forced to stall to communicate backwards
system.cpu1.commit.commitSquashedInsts        4906557                       # The number of squashed insts skipped by commit
system.cpu1.commit.committedInsts            32264138                       # Number of instructions committed
system.cpu1.commit.committedOps              33282240                       # Number of ops (including micro ops) committed
system.cpu1.commit.committed_per_cycle::samples    190800207                       # Number of insts commited each cycle
system.cpu1.commit.committed_per_cycle::mean     0.174435                       # Number of insts commited each cycle
system.cpu1.commit.committed_per_cycle::stdev     0.829397                       # Number of insts commited each cycle
system.cpu1.commit.committed_per_cycle::underflows            0      0.00%      0.00% # Number of insts commited each cycle
system.cpu1.commit.committed_per_cycle::0    176994527     92.76%     92.76% # Number of insts commited each cycle
system.cpu1.commit.committed_per_cycle::1      6932800      3.63%     96.40% # Number of insts commited each cycle
system.cpu1.commit.committed_per_cycle::2      2368771      1.24%     97.64% # Number of insts commited each cycle
system.cpu1.commit.committed_per_cycle::3      1991700      1.04%     98.68% # Number of insts commited each cycle
system.cpu1.commit.committed_per_cycle::4       499074      0.26%     98.94% # Number of insts commited each cycle
system.cpu1.commit.committed_per_cycle::5       164621      0.09%     99.03% # Number of insts commited each cycle
system.cpu1.commit.committed_per_cycle::6       945052      0.50%     99.53% # Number of insts commited each cycle
system.cpu1.commit.committed_per_cycle::7        82211      0.04%     99.57% # Number of insts commited each cycle
system.cpu1.commit.committed_per_cycle::8       821451      0.43%    100.00% # Number of insts commited each cycle
system.cpu1.commit.committed_per_cycle::overflows            0      0.00%    100.00% # Number of insts commited each cycle
system.cpu1.commit.committed_per_cycle::min_value            0                       # Number of insts commited each cycle
system.cpu1.commit.committed_per_cycle::max_value            8                       # Number of insts commited each cycle
system.cpu1.commit.committed_per_cycle::total    190800207                       # Number of insts commited each cycle
system.cpu1.commit.fp_insts                        12                       # Number of committed floating point instructions.
system.cpu1.commit.function_calls              320852                       # Number of function calls committed.
system.cpu1.commit.int_insts                 31049050                       # Number of committed integer instructions.
system.cpu1.commit.loads                      9248854                       # Number of loads committed
system.cpu1.commit.membars                    2035976                       # Number of memory barriers committed
system.cpu1.commit.op_class_0::No_OpClass      2035976      6.12%      6.12% # Class of committed instruction
system.cpu1.commit.op_class_0::IntAlu        19083247     57.34%     63.45% # Class of committed instruction
system.cpu1.commit.op_class_0::IntMult             42      0.00%     63.46% # Class of committed instruction
system.cpu1.commit.op_class_0::IntDiv              84      0.00%     63.46% # Class of committed instruction
system.cpu1.commit.op_class_0::FloatAdd             0      0.00%     63.46% # Class of committed instruction
system.cpu1.commit.op_class_0::FloatCmp             0      0.00%     63.46% # Class of committed instruction
system.cpu1.commit.op_class_0::FloatCvt             0      0.00%     63.46% # Class of committed instruction
system.cpu1.commit.op_class_0::FloatMult            0      0.00%     63.46% # Class of committed instruction
system.cpu1.commit.op_class_0::FloatMultAcc            0      0.00%     63.46% # Class of committed instruction
system.cpu1.commit.op_class_0::FloatDiv             0      0.00%     63.46% # Class of committed instruction
system.cpu1.commit.op_class_0::FloatMisc            0      0.00%     63.46% # Class of committed instruction
system.cpu1.commit.op_class_0::FloatSqrt            0      0.00%     63.46% # Class of committed instruction
system.cpu1.commit.op_class_0::SimdAdd              0      0.00%     63.46% # Class of committed instruction
system.cpu1.commit.op_class_0::SimdAddAcc            0      0.00%     63.46% # Class of committed instruction
system.cpu1.commit.op_class_0::SimdAlu              0      0.00%     63.46% # Class of committed instruction
system.cpu1.commit.op_class_0::SimdCmp              0      0.00%     63.46% # Class of committed instruction
system.cpu1.commit.op_class_0::SimdCvt              0      0.00%     63.46% # Class of committed instruction
system.cpu1.commit.op_class_0::SimdMisc             0      0.00%     63.46% # Class of committed instruction
system.cpu1.commit.op_class_0::SimdMult             0      0.00%     63.46% # Class of committed instruction
system.cpu1.commit.op_class_0::SimdMultAcc            0      0.00%     63.46% # Class of committed instruction
system.cpu1.commit.op_class_0::SimdShift            0      0.00%     63.46% # Class of committed instruction
system.cpu1.commit.op_class_0::SimdShiftAcc            0      0.00%     63.46% # Class of committed instruction
system.cpu1.commit.op_class_0::SimdDiv              0      0.00%     63.46% # Class of committed instruction
system.cpu1.commit.op_class_0::SimdSqrt             0      0.00%     63.46% # Class of committed instruction
system.cpu1.commit.op_class_0::SimdFloatAdd            0      0.00%     63.46% # Class of committed instruction
system.cpu1.commit.op_class_0::SimdFloatAlu            0      0.00%     63.46% # Class of committed instruction
system.cpu1.commit.op_class_0::SimdFloatCmp            0      0.00%     63.46% # Class of committed instruction
system.cpu1.commit.op_class_0::SimdFloatCvt            0      0.00%     63.46% # Class of committed instruction
system.cpu1.commit.op_class_0::SimdFloatDiv            0      0.00%     63.46% # Class of committed instruction
system.cpu1.commit.op_class_0::SimdFloatMisc            0      0.00%     63.46% # Class of committed instruction
system.cpu1.commit.op_class_0::SimdFloatMult            0      0.00%     63.46% # Class of committed instruction
system.cpu1.commit.op_class_0::SimdFloatMultAcc            0      0.00%     63.46% # Class of committed instruction
system.cpu1.commit.op_class_0::SimdFloatSqrt            0      0.00%     63.46% # Class of committed instruction
system.cpu1.commit.op_class_0::SimdReduceAdd            0      0.00%     63.46% # Class of committed instruction
system.cpu1.commit.op_class_0::SimdReduceAlu            0      0.00%     63.46% # Class of committed instruction
system.cpu1.commit.op_class_0::SimdReduceCmp            0      0.00%     63.46% # Class of committed instruction
system.cpu1.commit.op_class_0::SimdFloatReduceAdd            0      0.00%     63.46% # Class of committed instruction
system.cpu1.commit.op_class_0::SimdFloatReduceCmp            0      0.00%     63.46% # Class of committed instruction
system.cpu1.commit.op_class_0::SimdAes              0      0.00%     63.46% # Class of committed instruction
system.cpu1.commit.op_class_0::SimdAesMix            0      0.00%     63.46% # Class of committed instruction
system.cpu1.commit.op_class_0::SimdSha1Hash            0      0.00%     63.46% # Class of committed instruction
system.cpu1.commit.op_class_0::SimdSha1Hash2            0      0.00%     63.46% # Class of committed instruction
system.cpu1.commit.op_class_0::SimdSha256Hash            0      0.00%     63.46% # Class of committed instruction
system.cpu1.commit.op_class_0::SimdSha256Hash2            0      0.00%     63.46% # Class of committed instruction
system.cpu1.commit.op_class_0::SimdShaSigma2            0      0.00%     63.46% # Class of committed instruction
system.cpu1.commit.op_class_0::SimdShaSigma3            0      0.00%     63.46% # Class of committed instruction
system.cpu1.commit.op_class_0::SimdPredAlu            0      0.00%     63.46% # Class of committed instruction
system.cpu1.commit.op_class_0::MemRead       10266779     30.85%     94.30% # Class of committed instruction
system.cpu1.commit.op_class_0::MemWrite       1896100      5.70%    100.00% # Class of committed instruction
system.cpu1.commit.op_class_0::FloatMemRead            0      0.00%    100.00% # Class of committed instruction
system.cpu1.commit.op_class_0::FloatMemWrite           12      0.00%    100.00% # Class of committed instruction
system.cpu1.commit.op_class_0::IprAccess            0      0.00%    100.00% # Class of committed instruction
system.cpu1.commit.op_class_0::InstPrefetch            0      0.00%    100.00% # Class of committed instruction
system.cpu1.commit.op_class_0::total         33282240                       # Class of committed instruction
system.cpu1.commit.refs                      12162891                       # Number of memory references committed
system.cpu1.commit.swp_count                        0                       # Number of s/w prefetches committed
system.cpu1.commit.vec_insts                        0                       # Number of committed Vector instructions.
system.cpu1.committedInsts                   32264138                       # Number of Instructions Simulated
system.cpu1.committedOps                     33282240                       # Number of Ops (including micro ops) Simulated
system.cpu1.cpi                              5.946465                       # CPI: Cycles Per Instruction
system.cpu1.cpi_total                        5.946465                       # CPI: Total CPI of All Threads
system.cpu1.decode.BlockedCycles            170553587                       # Number of cycles decode is blocked
system.cpu1.decode.BranchMispred               340363                       # Number of times decode detected a branch misprediction
system.cpu1.decode.BranchResolved             4393845                       # Number of times decode resolved a branch
system.cpu1.decode.DecodedInsts              39956126                       # Number of instructions handled by decode
system.cpu1.decode.IdleCycles                 5878455                       # Number of cycles decode is idle
system.cpu1.decode.RunCycles                 12418746                       # Number of cycles decode is running
system.cpu1.decode.SquashCycles                490078                       # Number of cycles decode is squashing
system.cpu1.decode.SquashedInsts               623755                       # Number of squashed instructions handled by decode
system.cpu1.decode.UnblockCycles              2340867                       # Number of cycles decode is unblocking
system.cpu1.dtb.accesses                            0                       # DTB accesses
system.cpu1.dtb.hits                                0                       # DTB hits
system.cpu1.dtb.misses                              0                       # DTB misses
system.cpu1.dtb.read_accesses                       0                       # DTB read accesses
system.cpu1.dtb.read_hits                           0                       # DTB read hits
system.cpu1.dtb.read_misses                         0                       # DTB read misses
system.cpu1.dtb.write_accesses                      0                       # DTB write accesses
system.cpu1.dtb.write_hits                          0                       # DTB write hits
system.cpu1.dtb.write_misses                        0                       # DTB write misses
system.cpu1.fetch.Branches                    8783300                       # Number of branches that fetch encountered
system.cpu1.fetch.CacheLines                  5162318                       # Number of cache lines fetched
system.cpu1.fetch.Cycles                    185246918                       # Number of cycles fetch has run and was not squashing or blocked
system.cpu1.fetch.IcacheSquashes                50997                       # Number of outstanding Icache misses that were squashed
system.cpu1.fetch.Insts                      40794994                       # Number of instructions fetch has processed
system.cpu1.fetch.MiscStallCycles                   1                       # Number of cycles fetch has spent waiting on interrupts, or bad addresses, or out of MSHRs
system.cpu1.fetch.SquashCycles                1653852                       # Number of cycles fetch has spent squashing
system.cpu1.fetch.branchRate                 0.045780                       # Number of branch fetches per cycle
system.cpu1.fetch.icacheStallCycles           5607888                       # Number of cycles fetch is stalled on an Icache miss
system.cpu1.fetch.predictedBranches           4796576                       # Number of branches that fetch has predicted taken
system.cpu1.fetch.rate                       0.212632                       # Number of inst fetches per cycle
system.cpu1.fetch.rateDist::samples         191681733                       # Number of instructions fetched each cycle (Total)
system.cpu1.fetch.rateDist::mean             0.218140                       # Number of instructions fetched each cycle (Total)
system.cpu1.fetch.rateDist::stdev            0.665434                       # Number of instructions fetched each cycle (Total)
system.cpu1.fetch.rateDist::underflows              0      0.00%      0.00% # Number of instructions fetched each cycle (Total)
system.cpu1.fetch.rateDist::0               167044457     87.15%     87.15% # Number of instructions fetched each cycle (Total)
system.cpu1.fetch.rateDist::1                14086820      7.35%     94.50% # Number of instructions fetched each cycle (Total)
system.cpu1.fetch.rateDist::2                 5751246      3.00%     97.50% # Number of instructions fetched each cycle (Total)
system.cpu1.fetch.rateDist::3                 3432684      1.79%     99.29% # Number of instructions fetched each cycle (Total)
system.cpu1.fetch.rateDist::4                  910411      0.47%     99.76% # Number of instructions fetched each cycle (Total)
system.cpu1.fetch.rateDist::5                  452748      0.24%    100.00% # Number of instructions fetched each cycle (Total)
system.cpu1.fetch.rateDist::6                    3079      0.00%    100.00% # Number of instructions fetched each cycle (Total)
system.cpu1.fetch.rateDist::7                     140      0.00%    100.00% # Number of instructions fetched each cycle (Total)
system.cpu1.fetch.rateDist::8                     148      0.00%    100.00% # Number of instructions fetched each cycle (Total)
system.cpu1.fetch.rateDist::overflows               0      0.00%    100.00% # Number of instructions fetched each cycle (Total)
system.cpu1.fetch.rateDist::min_value               0                       # Number of instructions fetched each cycle (Total)
system.cpu1.fetch.rateDist::max_value               8                       # Number of instructions fetched each cycle (Total)
system.cpu1.fetch.rateDist::total           191681733                       # Number of instructions fetched each cycle (Total)
system.cpu1.fp_regfile_reads                       12                       # number of floating regfile reads
system.cpu1.idleCycles                         175838                       # Total number of cycles that the CPU has spent unscheduled due to idling
system.cpu1.iew.branchMispredicts              522824                       # Number of branch mispredicts detected at execute
system.cpu1.iew.exec_branches                 7699016                       # Number of branches executed
system.cpu1.iew.exec_nop                            0                       # number of nop insts executed
system.cpu1.iew.exec_rate                    0.189672                       # Inst execution rate
system.cpu1.iew.exec_refs                    13001011                       # number of memory reference insts executed
system.cpu1.iew.exec_stores                   2945506                       # Number of stores executed
system.cpu1.iew.exec_swp                            0                       # number of swp insts executed
system.cpu1.iew.iewBlockCycles              147804917                       # Number of cycles IEW is blocking
system.cpu1.iew.iewDispLoadInsts             10319507                       # Number of dispatched load instructions
system.cpu1.iew.iewDispNonSpecInsts           1018521                       # Number of dispatched non-speculative instructions
system.cpu1.iew.iewDispSquashedInsts           245796                       # Number of squashed instructions skipped by dispatch
system.cpu1.iew.iewDispStoreInsts             2979532                       # Number of dispatched store instructions
system.cpu1.iew.iewDispatchedInsts           38181451                       # Number of instructions dispatched to IQ
system.cpu1.iew.iewExecLoadInsts             10055505                       # Number of load instructions executed
system.cpu1.iew.iewExecSquashedInsts           658084                       # Number of squashed instructions skipped in execute
system.cpu1.iew.iewExecutedInsts             36390057                       # Number of executed instructions
system.cpu1.iew.iewIQFullEvents               1005213                       # Number of times the IQ has become full, causing a stall
system.cpu1.iew.iewIdleCycles                       0                       # Number of cycles IEW is idle
system.cpu1.iew.iewLSQFullEvents              1741456                       # Number of times the LSQ has become full, causing a stall
system.cpu1.iew.iewSquashCycles                490078                       # Number of cycles IEW is squashing
system.cpu1.iew.iewUnblockCycles              3844993                       # Number of cycles IEW is unblocking
system.cpu1.iew.lsq.thread0.blockedLoads            0                       # Number of blocked loads due to partial load-store forwarding
system.cpu1.iew.lsq.thread0.cacheBlocked        17747                       # Number of times an access to memory failed due to the cache being blocked
system.cpu1.iew.lsq.thread0.forwLoads          159166                       # Number of loads that had data forwarded from stores
system.cpu1.iew.lsq.thread0.ignoredResponses         4602                       # Number of memory responses ignored because the instruction is squashed
system.cpu1.iew.lsq.thread0.invAddrLoads            0                       # Number of loads ignored due to an invalid address
system.cpu1.iew.lsq.thread0.invAddrSwpfs            0                       # Number of software prefetches ignored due to an invalid address
system.cpu1.iew.lsq.thread0.memOrderViolation          128                       # Number of memory ordering violations
system.cpu1.iew.lsq.thread0.rescheduledLoads          401                       # Number of loads that were rescheduled
system.cpu1.iew.lsq.thread0.squashedLoads      1070653                       # Number of loads squashed
system.cpu1.iew.lsq.thread0.squashedStores        65495                       # Number of stores squashed
system.cpu1.iew.memOrderViolationEvents           128                       # Number of memory order violations
system.cpu1.iew.predictedNotTakenIncorrect        92476                       # Number of branches that were predicted not taken incorrectly
system.cpu1.iew.predictedTakenIncorrect        430348                       # Number of branches that were predicted taken incorrectly
system.cpu1.iew.wb_consumers                 21332170                       # num instructions consuming a value
system.cpu1.iew.wb_count                     36121584                       # cumulative count of insts written-back
system.cpu1.iew.wb_fanout                    0.865963                       # average fanout of values written-back
system.cpu1.iew.wb_producers                 18472866                       # num instructions producing a value
system.cpu1.iew.wb_rate                      0.188273                       # insts written-back per cycle
system.cpu1.iew.wb_sent                      36131353                       # cumulative count of insts sent to commit
system.cpu1.int_regfile_reads                44737870                       # number of integer regfile reads
system.cpu1.int_regfile_writes               24665219                       # number of integer regfile writes
system.cpu1.ipc                              0.168167                       # IPC: Instructions Per Cycle
system.cpu1.ipc_total                        0.168167                       # IPC: Total IPC of All Threads
system.cpu1.iq.FU_type_0::No_OpClass          2036074      5.50%      5.50% # Type of FU issued
system.cpu1.iq.FU_type_0::IntAlu             21921673     59.17%     64.67% # Type of FU issued
system.cpu1.iq.FU_type_0::IntMult                  45      0.00%     64.67% # Type of FU issued
system.cpu1.iq.FU_type_0::IntDiv                   84      0.00%     64.67% # Type of FU issued
system.cpu1.iq.FU_type_0::FloatAdd                  0      0.00%     64.67% # Type of FU issued
system.cpu1.iq.FU_type_0::FloatCmp                  0      0.00%     64.67% # Type of FU issued
system.cpu1.iq.FU_type_0::FloatCvt                  0      0.00%     64.67% # Type of FU issued
system.cpu1.iq.FU_type_0::FloatMult                 0      0.00%     64.67% # Type of FU issued
system.cpu1.iq.FU_type_0::FloatMultAcc              0      0.00%     64.67% # Type of FU issued
system.cpu1.iq.FU_type_0::FloatDiv                  0      0.00%     64.67% # Type of FU issued
system.cpu1.iq.FU_type_0::FloatMisc                 0      0.00%     64.67% # Type of FU issued
system.cpu1.iq.FU_type_0::FloatSqrt                 0      0.00%     64.67% # Type of FU issued
system.cpu1.iq.FU_type_0::SimdAdd                   0      0.00%     64.67% # Type of FU issued
system.cpu1.iq.FU_type_0::SimdAddAcc                0      0.00%     64.67% # Type of FU issued
system.cpu1.iq.FU_type_0::SimdAlu                   0      0.00%     64.67% # Type of FU issued
system.cpu1.iq.FU_type_0::SimdCmp                   0      0.00%     64.67% # Type of FU issued
system.cpu1.iq.FU_type_0::SimdCvt                   0      0.00%     64.67% # Type of FU issued
system.cpu1.iq.FU_type_0::SimdMisc                  0      0.00%     64.67% # Type of FU issued
system.cpu1.iq.FU_type_0::SimdMult                  0      0.00%     64.67% # Type of FU issued
system.cpu1.iq.FU_type_0::SimdMultAcc               0      0.00%     64.67% # Type of FU issued
system.cpu1.iq.FU_type_0::SimdShift                 0      0.00%     64.67% # Type of FU issued
system.cpu1.iq.FU_type_0::SimdShiftAcc              0      0.00%     64.67% # Type of FU issued
system.cpu1.iq.FU_type_0::SimdDiv                   0      0.00%     64.67% # Type of FU issued
system.cpu1.iq.FU_type_0::SimdSqrt                  0      0.00%     64.67% # Type of FU issued
system.cpu1.iq.FU_type_0::SimdFloatAdd              0      0.00%     64.67% # Type of FU issued
system.cpu1.iq.FU_type_0::SimdFloatAlu              0      0.00%     64.67% # Type of FU issued
system.cpu1.iq.FU_type_0::SimdFloatCmp              0      0.00%     64.67% # Type of FU issued
system.cpu1.iq.FU_type_0::SimdFloatCvt              0      0.00%     64.67% # Type of FU issued
system.cpu1.iq.FU_type_0::SimdFloatDiv              0      0.00%     64.67% # Type of FU issued
system.cpu1.iq.FU_type_0::SimdFloatMisc             0      0.00%     64.67% # Type of FU issued
system.cpu1.iq.FU_type_0::SimdFloatMult             0      0.00%     64.67% # Type of FU issued
system.cpu1.iq.FU_type_0::SimdFloatMultAcc            0      0.00%     64.67% # Type of FU issued
system.cpu1.iq.FU_type_0::SimdFloatSqrt             0      0.00%     64.67% # Type of FU issued
system.cpu1.iq.FU_type_0::SimdReduceAdd             0      0.00%     64.67% # Type of FU issued
system.cpu1.iq.FU_type_0::SimdReduceAlu             0      0.00%     64.67% # Type of FU issued
system.cpu1.iq.FU_type_0::SimdReduceCmp             0      0.00%     64.67% # Type of FU issued
system.cpu1.iq.FU_type_0::SimdFloatReduceAdd            0      0.00%     64.67% # Type of FU issued
system.cpu1.iq.FU_type_0::SimdFloatReduceCmp            0      0.00%     64.67% # Type of FU issued
system.cpu1.iq.FU_type_0::SimdAes                   0      0.00%     64.67% # Type of FU issued
system.cpu1.iq.FU_type_0::SimdAesMix                0      0.00%     64.67% # Type of FU issued
system.cpu1.iq.FU_type_0::SimdSha1Hash              0      0.00%     64.67% # Type of FU issued
system.cpu1.iq.FU_type_0::SimdSha1Hash2             0      0.00%     64.67% # Type of FU issued
system.cpu1.iq.FU_type_0::SimdSha256Hash            0      0.00%     64.67% # Type of FU issued
system.cpu1.iq.FU_type_0::SimdSha256Hash2            0      0.00%     64.67% # Type of FU issued
system.cpu1.iq.FU_type_0::SimdShaSigma2             0      0.00%     64.67% # Type of FU issued
system.cpu1.iq.FU_type_0::SimdShaSigma3             0      0.00%     64.67% # Type of FU issued
system.cpu1.iq.FU_type_0::SimdPredAlu               0      0.00%     64.67% # Type of FU issued
system.cpu1.iq.FU_type_0::MemRead            11155202     30.11%     94.78% # Type of FU issued
system.cpu1.iq.FU_type_0::MemWrite            1935051      5.22%    100.00% # Type of FU issued
system.cpu1.iq.FU_type_0::FloatMemRead              0      0.00%    100.00% # Type of FU issued
system.cpu1.iq.FU_type_0::FloatMemWrite            12      0.00%    100.00% # Type of FU issued
system.cpu1.iq.FU_type_0::IprAccess                 0      0.00%    100.00% # Type of FU issued
system.cpu1.iq.FU_type_0::InstPrefetch              0      0.00%    100.00% # Type of FU issued
system.cpu1.iq.FU_type_0::total              37048141                       # Type of FU issued
system.cpu1.iq.fp_alu_accesses                     14                       # Number of floating point alu accesses
system.cpu1.iq.fp_inst_queue_reads                 26                       # Number of floating instruction queue reads
system.cpu1.iq.fp_inst_queue_wakeup_accesses           12                       # Number of floating instruction queue wakeup accesses
system.cpu1.iq.fp_inst_queue_writes                12                       # Number of floating instruction queue writes
system.cpu1.iq.fu_busy_cnt                    1106868                       # FU busy when requested
system.cpu1.iq.fu_busy_rate                  0.029876                       # FU busy rate (busy events/executed inst)
system.cpu1.iq.fu_full::No_OpClass                  0      0.00%      0.00% # attempts to use FU when none available
system.cpu1.iq.fu_full::IntAlu                 213356     19.28%     19.28% # attempts to use FU when none available
system.cpu1.iq.fu_full::IntMult                     0      0.00%     19.28% # attempts to use FU when none available
system.cpu1.iq.fu_full::IntDiv                      0      0.00%     19.28% # attempts to use FU when none available
system.cpu1.iq.fu_full::FloatAdd                    0      0.00%     19.28% # attempts to use FU when none available
system.cpu1.iq.fu_full::FloatCmp                    0      0.00%     19.28% # attempts to use FU when none available
system.cpu1.iq.fu_full::FloatCvt                    0      0.00%     19.28% # attempts to use FU when none available
system.cpu1.iq.fu_full::FloatMult                   0      0.00%     19.28% # attempts to use FU when none available
system.cpu1.iq.fu_full::FloatMultAcc                0      0.00%     19.28% # attempts to use FU when none available
system.cpu1.iq.fu_full::FloatDiv                    0      0.00%     19.28% # attempts to use FU when none available
system.cpu1.iq.fu_full::FloatMisc                   0      0.00%     19.28% # attempts to use FU when none available
system.cpu1.iq.fu_full::FloatSqrt                   0      0.00%     19.28% # attempts to use FU when none available
system.cpu1.iq.fu_full::SimdAdd                     0      0.00%     19.28% # attempts to use FU when none available
system.cpu1.iq.fu_full::SimdAddAcc                  0      0.00%     19.28% # attempts to use FU when none available
system.cpu1.iq.fu_full::SimdAlu                     0      0.00%     19.28% # attempts to use FU when none available
system.cpu1.iq.fu_full::SimdCmp                     0      0.00%     19.28% # attempts to use FU when none available
system.cpu1.iq.fu_full::SimdCvt                     0      0.00%     19.28% # attempts to use FU when none available
system.cpu1.iq.fu_full::SimdMisc                    0      0.00%     19.28% # attempts to use FU when none available
system.cpu1.iq.fu_full::SimdMult                    0      0.00%     19.28% # attempts to use FU when none available
system.cpu1.iq.fu_full::SimdMultAcc                 0      0.00%     19.28% # attempts to use FU when none available
system.cpu1.iq.fu_full::SimdShift                   0      0.00%     19.28% # attempts to use FU when none available
system.cpu1.iq.fu_full::SimdShiftAcc                0      0.00%     19.28% # attempts to use FU when none available
system.cpu1.iq.fu_full::SimdDiv                     0      0.00%     19.28% # attempts to use FU when none available
system.cpu1.iq.fu_full::SimdSqrt                    0      0.00%     19.28% # attempts to use FU when none available
system.cpu1.iq.fu_full::SimdFloatAdd                0      0.00%     19.28% # attempts to use FU when none available
system.cpu1.iq.fu_full::SimdFloatAlu                0      0.00%     19.28% # attempts to use FU when none available
system.cpu1.iq.fu_full::SimdFloatCmp                0      0.00%     19.28% # attempts to use FU when none available
system.cpu1.iq.fu_full::SimdFloatCvt                0      0.00%     19.28% # attempts to use FU when none available
system.cpu1.iq.fu_full::SimdFloatDiv                0      0.00%     19.28% # attempts to use FU when none available
system.cpu1.iq.fu_full::SimdFloatMisc               0      0.00%     19.28% # attempts to use FU when none available
system.cpu1.iq.fu_full::SimdFloatMult               0      0.00%     19.28% # attempts to use FU when none available
system.cpu1.iq.fu_full::SimdFloatMultAcc            0      0.00%     19.28% # attempts to use FU when none available
system.cpu1.iq.fu_full::SimdFloatSqrt               0      0.00%     19.28% # attempts to use FU when none available
system.cpu1.iq.fu_full::SimdReduceAdd               0      0.00%     19.28% # attempts to use FU when none available
system.cpu1.iq.fu_full::SimdReduceAlu               0      0.00%     19.28% # attempts to use FU when none available
system.cpu1.iq.fu_full::SimdReduceCmp               0      0.00%     19.28% # attempts to use FU when none available
system.cpu1.iq.fu_full::SimdFloatReduceAdd            0      0.00%     19.28% # attempts to use FU when none available
system.cpu1.iq.fu_full::SimdFloatReduceCmp            0      0.00%     19.28% # attempts to use FU when none available
system.cpu1.iq.fu_full::SimdAes                     0      0.00%     19.28% # attempts to use FU when none available
system.cpu1.iq.fu_full::SimdAesMix                  0      0.00%     19.28% # attempts to use FU when none available
system.cpu1.iq.fu_full::SimdSha1Hash                0      0.00%     19.28% # attempts to use FU when none available
system.cpu1.iq.fu_full::SimdSha1Hash2               0      0.00%     19.28% # attempts to use FU when none available
system.cpu1.iq.fu_full::SimdSha256Hash              0      0.00%     19.28% # attempts to use FU when none available
system.cpu1.iq.fu_full::SimdSha256Hash2             0      0.00%     19.28% # attempts to use FU when none available
system.cpu1.iq.fu_full::SimdShaSigma2               0      0.00%     19.28% # attempts to use FU when none available
system.cpu1.iq.fu_full::SimdShaSigma3               0      0.00%     19.28% # attempts to use FU when none available
system.cpu1.iq.fu_full::SimdPredAlu                 0      0.00%     19.28% # attempts to use FU when none available
system.cpu1.iq.fu_full::MemRead                801869     72.44%     91.72% # attempts to use FU when none available
system.cpu1.iq.fu_full::MemWrite                91641      8.28%    100.00% # attempts to use FU when none available
[...]
system.cpu1.dcache.WriteReq_hits::total        416058                       # number of WriteReq hits
system.cpu1.dcache.WriteReq_misses::.cpu1.data       409957                       # number of WriteReq misses
system.cpu1.dcache.WriteReq_misses::total       409957                       # number of WriteReq misses
system.cpu1.dcache.WriteReq_miss_latency::.cpu1.data  28830908993                       # number of WriteReq miss cycles
system.cpu1.dcache.WriteReq_miss_latency::total  28830908993                       # number of WriteReq miss cycles
system.cpu1.dcache.WriteReq_accesses::.cpu1.data       826015                       # number of WriteReq accesses(hits+misses)
system.cpu1.dcache.WriteReq_accesses::total       826015                       # number of WriteReq accesses(hits+misses)
system.cpu1.dcache.WriteReq_miss_rate::.cpu1.data     0.496307                       # miss rate for WriteReq accesses
system.cpu1.dcache.WriteReq_miss_rate::total     0.496307                       # miss rate for WriteReq accesses
system.cpu1.dcache.WriteReq_avg_miss_latency::.cpu1.data 70326.665950                       # average WriteReq miss latency
system.cpu1.dcache.WriteReq_avg_miss_latency::total 70326.665950                       # average WriteReq miss latency
system.cpu1.dcache.WriteReq_mshr_hits::.cpu1.data       370937                       # number of WriteReq MSHR hits
system.cpu1.dcache.WriteReq_mshr_hits::total       370937                       # number of WriteReq MSHR hits
system.cpu1.dcache.WriteReq_mshr_misses::.cpu1.data        39020                       # number of WriteReq MSHR misses
system.cpu1.dcache.WriteReq_mshr_misses::total        39020                       # number of WriteReq MSHR misses
system.cpu1.dcache.WriteReq_mshr_miss_latency::.cpu1.data   2659154498                       # number of WriteReq MSHR miss cycles
system.cpu1.dcache.WriteReq_mshr_miss_latency::total   2659154498                       # number of WriteReq MSHR miss cycles
system.cpu1.dcache.WriteReq_mshr_miss_rate::.cpu1.data     0.047239                       # mshr miss rate for WriteReq accesses
system.cpu1.dcache.WriteReq_mshr_miss_rate::total     0.047239                       # mshr miss rate for WriteReq accesses
system.cpu1.dcache.WriteReq_avg_mshr_miss_latency::.cpu1.data 68148.500718                       # average WriteReq mshr miss latency
system.cpu1.dcache.WriteReq_avg_mshr_miss_latency::total 68148.500718                       # average WriteReq mshr miss latency
system.cpu1.dcache.LoadLockedReq_hits::.cpu1.data       552979                       # number of LoadLockedReq hits
system.cpu1.dcache.LoadLockedReq_hits::total       552979                       # number of LoadLockedReq hits
system.cpu1.dcache.LoadLockedReq_misses::.cpu1.data         6276                       # number of LoadLockedReq misses
system.cpu1.dcache.LoadLockedReq_misses::total         6276                       # number of LoadLockedReq misses
system.cpu1.dcache.LoadLockedReq_miss_latency::.cpu1.data    166076000                       # number of LoadLockedReq miss cycles
system.cpu1.dcache.LoadLockedReq_miss_latency::total    166076000                       # number of LoadLockedReq miss cycles
system.cpu1.dcache.LoadLockedReq_accesses::.cpu1.data       559255                       # number of LoadLockedReq accesses(hits+misses)
system.cpu1.dcache.LoadLockedReq_accesses::total       559255                       # number of LoadLockedReq accesses(hits+misses)
system.cpu1.dcache.LoadLockedReq_miss_rate::.cpu1.data     0.011222                       # miss rate for LoadLockedReq accesses
system.cpu1.dcache.LoadLockedReq_miss_rate::total     0.011222                       # miss rate for LoadLockedReq accesses
system.cpu1.dcache.LoadLockedReq_avg_miss_latency::.cpu1.data 26462.077757                       # average LoadLockedReq miss latency
system.cpu1.dcache.LoadLockedReq_avg_miss_latency::total 26462.077757                       # average LoadLockedReq miss latency
system.cpu1.dcache.LoadLockedReq_mshr_hits::.cpu1.data          125                       # number of LoadLockedReq MSHR hits
system.cpu1.dcache.LoadLockedReq_mshr_hits::total          125                       # number of LoadLockedReq MSHR hits
system.cpu1.dcache.LoadLockedReq_mshr_misses::.cpu1.data         6151                       # number of LoadLockedReq MSHR misses
system.cpu1.dcache.LoadLockedReq_mshr_misses::total         6151                       # number of LoadLockedReq MSHR misses
system.cpu1.dcache.LoadLockedReq_mshr_miss_latency::.cpu1.data    150160000                       # number of LoadLockedReq MSHR miss cycles
system.cpu1.dcache.LoadLockedReq_mshr_miss_latency::total    150160000                       # number of LoadLockedReq MSHR miss cycles
system.cpu1.dcache.LoadLockedReq_mshr_miss_rate::.cpu1.data     0.010999                       # mshr miss rate for LoadLockedReq accesses
system.cpu1.dcache.LoadLockedReq_mshr_miss_rate::total     0.010999                       # mshr miss rate for LoadLockedReq accesses
system.cpu1.dcache.LoadLockedReq_avg_mshr_miss_latency::.cpu1.data 24412.290684                       # average LoadLockedReq mshr miss latency
system.cpu1.dcache.LoadLockedReq_avg_mshr_miss_latency::total 24412.290684                       # average LoadLockedReq mshr miss latency
system.cpu1.dcache.StoreCondReq_hits::.cpu1.data       558693                       # number of StoreCondReq hits
system.cpu1.dcache.StoreCondReq_hits::total       558693                       # number of StoreCondReq hits
system.cpu1.dcache.StoreCondReq_misses::.cpu1.data          333                       # number of StoreCondReq misses
system.cpu1.dcache.StoreCondReq_misses::total          333                       # number of StoreCondReq misses
system.cpu1.dcache.StoreCondReq_miss_latency::.cpu1.data      2363500                       # number of StoreCondReq miss cycles
system.cpu1.dcache.StoreCondReq_miss_latency::total      2363500                       # number of StoreCondReq miss cycles
system.cpu1.dcache.StoreCondReq_accesses::.cpu1.data       559026                       # number of StoreCondReq accesses(hits+misses)
system.cpu1.dcache.StoreCondReq_accesses::total       559026                       # number of StoreCondReq accesses(hits+misses)
system.cpu1.dcache.StoreCondReq_miss_rate::.cpu1.data     0.000596                       # miss rate for StoreCondReq accesses
system.cpu1.dcache.StoreCondReq_miss_rate::total     0.000596                       # miss rate for StoreCondReq accesses
system.cpu1.dcache.StoreCondReq_avg_miss_latency::.cpu1.data  7097.597598                       # average StoreCondReq miss latency
system.cpu1.dcache.StoreCondReq_avg_miss_latency::total  7097.597598                       # average StoreCondReq miss latency
system.cpu1.dcache.StoreCondReq_mshr_misses::.cpu1.data          333                       # number of StoreCondReq MSHR misses
system.cpu1.dcache.StoreCondReq_mshr_misses::total          333                       # number of StoreCondReq MSHR misses
system.cpu1.dcache.StoreCondReq_mshr_miss_latency::.cpu1.data      2031500                       # number of StoreCondReq MSHR miss cycles
system.cpu1.dcache.StoreCondReq_mshr_miss_latency::total      2031500                       # number of StoreCondReq MSHR miss cycles
system.cpu1.dcache.StoreCondReq_mshr_miss_rate::.cpu1.data     0.000596                       # mshr miss rate for StoreCondReq accesses
system.cpu1.dcache.StoreCondReq_mshr_miss_rate::total     0.000596                       # mshr miss rate for StoreCondReq accesses
system.cpu1.dcache.StoreCondReq_avg_mshr_miss_latency::.cpu1.data  6100.600601                       # average StoreCondReq mshr miss latency
system.cpu1.dcache.StoreCondReq_avg_mshr_miss_latency::total  6100.600601                       # average StoreCondReq mshr miss latency
system.cpu1.dcache.StoreCondFailReq_miss_latency::.cpu1.data        33500                       # number of StoreCondFailReq miss cycles
system.cpu1.dcache.StoreCondFailReq_miss_latency::total        33500                       # number of StoreCondFailReq miss cycles
system.cpu1.dcache.StoreCondFailReq_avg_miss_latency::.cpu1.data          inf                       # average StoreCondFailReq miss latency
system.cpu1.dcache.StoreCondFailReq_avg_miss_latency::total          inf                       # average StoreCondFailReq miss latency
system.cpu1.dcache.StoreCondFailReq_mshr_miss_latency::.cpu1.data        32500                       # number of StoreCondFailReq MSHR miss cycles
system.cpu1.dcache.StoreCondFailReq_mshr_miss_latency::total        32500                       # number of StoreCondFailReq MSHR miss cycles
system.cpu1.dcache.StoreCondFailReq_avg_mshr_miss_latency::.cpu1.data          inf                       # average StoreCondFailReq mshr miss latency
system.cpu1.dcache.StoreCondFailReq_avg_mshr_miss_latency::total          inf                       # average StoreCondFailReq mshr miss latency
system.cpu1.dcache.SwapReq_hits::.cpu1.data          523                       # number of SwapReq hits
system.cpu1.dcache.SwapReq_hits::total            523                       # number of SwapReq hits
system.cpu1.dcache.SwapReq_misses::.cpu1.data          548                       # number of SwapReq misses
system.cpu1.dcache.SwapReq_misses::total          548                       # number of SwapReq misses
system.cpu1.dcache.SwapReq_miss_latency::.cpu1.data     22894500                       # number of SwapReq miss cycles
system.cpu1.dcache.SwapReq_miss_latency::total     22894500                       # number of SwapReq miss cycles
system.cpu1.dcache.SwapReq_accesses::.cpu1.data         1071                       # number of SwapReq accesses(hits+misses)
system.cpu1.dcache.SwapReq_accesses::total         1071                       # number of SwapReq accesses(hits+misses)
system.cpu1.dcache.SwapReq_miss_rate::.cpu1.data     0.511671                       # miss rate for SwapReq accesses
system.cpu1.dcache.SwapReq_miss_rate::total     0.511671                       # miss rate for SwapReq accesses
system.cpu1.dcache.SwapReq_avg_miss_latency::.cpu1.data 41778.284672                       # average SwapReq miss latency
system.cpu1.dcache.SwapReq_avg_miss_latency::total 41778.284672                       # average SwapReq miss latency
system.cpu1.dcache.SwapReq_mshr_misses::.cpu1.data          548                       # number of SwapReq MSHR misses
system.cpu1.dcache.SwapReq_mshr_misses::total          548                       # number of SwapReq MSHR misses
system.cpu1.dcache.SwapReq_mshr_miss_latency::.cpu1.data     22346500                       # number of SwapReq MSHR miss cycles
system.cpu1.dcache.SwapReq_mshr_miss_latency::total     22346500                       # number of SwapReq MSHR miss cycles
system.cpu1.dcache.SwapReq_mshr_miss_rate::.cpu1.data     0.511671                       # mshr miss rate for SwapReq accesses
system.cpu1.dcache.SwapReq_mshr_miss_rate::total     0.511671                       # mshr miss rate for SwapReq accesses
system.cpu1.dcache.SwapReq_avg_mshr_miss_latency::.cpu1.data 40778.284672                       # average SwapReq mshr miss latency
system.cpu1.dcache.SwapReq_avg_mshr_miss_latency::total 40778.284672                       # average SwapReq mshr miss latency
system.cpu1.dcache.tags.pwrStateResidencyTicks::UNDEFINED 116829002500                       # Cumulative time (in ticks) in various power states
system.cpu1.dcache.tags.tagsinuse           31.649857                       # Cycle average of tags in use
system.cpu1.dcache.tags.total_refs           19616372                       # Total number of references to valid blocks.
system.cpu1.dcache.tags.sampled_refs          1083936                       # Sample count of references to valid blocks.
system.cpu1.dcache.tags.avg_refs            18.097353                       # Average number of references to valid blocks.
system.cpu1.dcache.tags.warmup_cycle                0                       # Cycle when the warmup percentage was hit.
system.cpu1.dcache.tags.occ_blocks::.cpu1.data    31.649857                       # Average occupied blocks per requestor
system.cpu1.dcache.tags.occ_percent::.cpu1.data     0.989058                       # Average percentage of cache occupancy
system.cpu1.dcache.tags.occ_percent::total     0.989058                       # Average percentage of cache occupancy
system.cpu1.dcache.tags.occ_task_id_blocks::1024           27                       # Occupied blocks per task id
system.cpu1.dcache.tags.age_task_id_blocks_1024::1            3                       # Occupied blocks per task id
system.cpu1.dcache.tags.age_task_id_blocks_1024::2           24                       # Occupied blocks per task id
system.cpu1.dcache.tags.occ_task_id_percent::1024     0.843750                       # Percentage of cache occupancy per task id
system.cpu1.dcache.tags.tag_accesses         45416519                       # Number of tag accesses
system.cpu1.dcache.tags.data_accesses        45416519                       # Number of data accesses
system.cpu_clk_domain.clock                       500                       # Clock period in ticks
system.tol2bus.pwrStateResidencyTicks::UNDEFINED 116829002500                       # Cumulative time (in ticks) in various power states
system.tol2bus.trans_dist::ReadResp           3053640                       # Transaction distribution
system.tol2bus.trans_dist::WritebackDirty       775557                       # Transaction distribution
system.tol2bus.trans_dist::WritebackClean      2731028                       # Transaction distribution
system.tol2bus.trans_dist::CleanEvict         5931757                       # Transaction distribution
system.tol2bus.trans_dist::HardPFReq          3268477                       # Transaction distribution
system.tol2bus.trans_dist::HardPFResp               1                       # Transaction distribution
system.tol2bus.trans_dist::UpgradeReq            1071                       # Transaction distribution
system.tol2bus.trans_dist::SCUpgradeReq           841                       # Transaction distribution
system.tol2bus.trans_dist::UpgradeResp           1912                       # Transaction distribution
system.tol2bus.trans_dist::SCUpgradeFailReq            1                       # Transaction distribution
system.tol2bus.trans_dist::UpgradeFailResp            1                       # Transaction distribution
system.tol2bus.trans_dist::ReadExReq           100960                       # Transaction distribution
system.tol2bus.trans_dist::ReadExResp          100960                       # Transaction distribution
system.tol2bus.trans_dist::ReadCleanReq        288940                       # Transaction distribution
system.tol2bus.trans_dist::ReadSharedReq      2764700                       # Transaction distribution
system.tol2bus.trans_dist::InvalidateReq          473                       # Transaction distribution
system.tol2bus.trans_dist::InvalidateResp          473                       # Transaction distribution
system.tol2bus.pkt_count_system.cpu0.icache.mem_side::system.l2.cpu_side       852788                       # Packet count per connected master and slave (bytes)
system.tol2bus.pkt_count_system.cpu0.dcache.mem_side::system.l2.cpu_side      5345771                       # Packet count per connected master and slave (bytes)
system.tol2bus.pkt_count_system.cpu1.icache.mem_side::system.l2.cpu_side        14031                       # Packet count per connected master and slave (bytes)
system.tol2bus.pkt_count_system.cpu1.dcache.mem_side::system.l2.cpu_side      3249782                       # Packet count per connected master and slave (bytes)
system.tol2bus.pkt_count::total               9462372                       # Packet count per connected master and slave (bytes)
system.tol2bus.pkt_size_system.cpu0.icache.mem_side::system.l2.cpu_side     36385600                       # Cumulative packet size per connected master and slave (bytes)
system.tol2bus.pkt_size_system.cpu0.dcache.mem_side::system.l2.cpu_side    227942208                       # Cumulative packet size per connected master and slave (bytes)
system.tol2bus.pkt_size_system.cpu1.icache.mem_side::system.l2.cpu_side       598656                       # Cumulative packet size per connected master and slave (bytes)
system.tol2bus.pkt_size_system.cpu1.dcache.mem_side::system.l2.cpu_side    138559424                       # Cumulative packet size per connected master and slave (bytes)
system.tol2bus.pkt_size::total              403485888                       # Cumulative packet size per connected master and slave (bytes)
system.tol2bus.snoops                         9558421                       # Total snoops (count)
system.tol2bus.snoopTraffic                  22830144                       # Total snoop traffic (bytes)
system.tol2bus.snoop_fanout::samples         12711198                       # Request fanout histogram
system.tol2bus.snoop_fanout::mean            0.188956                       # Request fanout histogram
system.tol2bus.snoop_fanout::stdev           0.399153                       # Request fanout histogram
system.tol2bus.snoop_fanout::underflows             0      0.00%      0.00% # Request fanout histogram
system.tol2bus.snoop_fanout::0               10347934     81.41%     81.41% # Request fanout histogram
system.tol2bus.snoop_fanout::1                2324676     18.29%     99.70% # Request fanout histogram
system.tol2bus.snoop_fanout::2                  38588      0.30%    100.00% # Request fanout histogram
system.tol2bus.snoop_fanout::3                      0      0.00%    100.00% # Request fanout histogram
system.tol2bus.snoop_fanout::4                      0      0.00%    100.00% # Request fanout histogram
system.tol2bus.snoop_fanout::5                      0      0.00%    100.00% # Request fanout histogram
system.tol2bus.snoop_fanout::6                      0      0.00%    100.00% # Request fanout histogram
system.tol2bus.snoop_fanout::7                      0      0.00%    100.00% # Request fanout histogram
system.tol2bus.snoop_fanout::8                      0      0.00%    100.00% # Request fanout histogram
system.tol2bus.snoop_fanout::overflows              0      0.00%    100.00% # Request fanout histogram
system.tol2bus.snoop_fanout::min_value              0                       # Request fanout histogram
system.tol2bus.snoop_fanout::max_value              2                       # Request fanout histogram
system.tol2bus.snoop_fanout::total           12711198                       # Request fanout histogram
system.tol2bus.reqLayer0.occupancy         6307474466                       # Layer occupancy (ticks)
system.tol2bus.reqLayer0.utilization              5.4                       # Layer utilization (%)
system.tol2bus.respLayer1.occupancy        2674737928                       # Layer occupancy (ticks)
system.tol2bus.respLayer1.utilization             2.3                       # Layer utilization (%)
system.tol2bus.respLayer0.occupancy         426509270                       # Layer occupancy (ticks)
system.tol2bus.respLayer0.utilization             0.4                       # Layer utilization (%)
system.tol2bus.respLayer3.occupancy        1627068820                       # Layer occupancy (ticks)
system.tol2bus.respLayer3.utilization             1.4                       # Layer utilization (%)
system.tol2bus.respLayer2.occupancy           7065899                       # Layer occupancy (ticks)
system.tol2bus.respLayer2.utilization             0.0                       # Layer utilization (%)
system.tol2bus.snoopLayer0.occupancy             1501                       # Layer occupancy (ticks)
system.tol2bus.snoopLayer0.utilization            0.0                       # Layer utilization (%)

---------- End Simulation Statistics   ----------
