
---------- Begin Simulation Statistics ----------
final_tick                               2177428362000                       # Number of ticks from beginning of simulation (restored from checkpoints and never reset)
host_inst_rate                                  73053                       # Simulator instruction rate (inst/s)
host_mem_usage                                 702204                       # Number of bytes of host memory used
host_op_rate                                    73289                       # Simulator op (including micro ops) rate (op/s)
host_seconds                                 32238.44                       # Real time elapsed on the host
host_tick_rate                               67541376                       # Simulator tick rate (ticks/s)
sim_freq                                 1000000000000                       # Frequency of simulated ticks
sim_insts                                  2355121725                       # Number of instructions simulated
sim_ops                                    2362730637                       # Number of ops (including micro ops) simulated
sim_seconds                                  2.177428                       # Number of seconds simulated
sim_ticks                                2177428362000                       # Number of ticks simulated
system.cpu0.branchPred.BTBCorrect                   0                       # Number of correct BTB predictions (this stat may not work properly.
system.cpu0.branchPred.BTBHitPct            87.316991                       # BTB Hit Percentage
system.cpu0.branchPred.BTBHits              293745077                       # Number of BTB hits
system.cpu0.branchPred.BTBLookups           336412275                       # Number of BTB lookups
system.cpu0.branchPred.RASInCorrect                 0                       # Number of incorrect RAS predictions.
system.cpu0.branchPred.condIncorrect         19529021                       # Number of conditional branches incorrect
system.cpu0.branchPred.condPredicted        459199386                       # Number of conditional branches predicted
system.cpu0.branchPred.indirectHits          38830749                       # Number of indirect target hits.
system.cpu0.branchPred.indirectLookups       39315706                       # Number of indirect predictor lookups.
system.cpu0.branchPred.indirectMisses          484957                       # Number of indirect misses.
system.cpu0.branchPred.lookups              584212205                       # Number of BP lookups
system.cpu0.branchPred.usedRAS                      0                       # Number of times the RAS was used to get a target.
system.cpu0.branchPredindirectMispredicted      3962144                       # Number of mispredicted indirect branches.
system.cpu0.commit.amos                       3801867                       # Number of atomic instructions committed
system.cpu0.commit.branchMispredicts         13771666                       # The number of times a branch was mispredicted
system.cpu0.commit.branches                 555083203                       # Number of branches committed
system.cpu0.commit.bw_lim_events             63101385                       # number cycles where commit BW limit reached
system.cpu0.commit.commitNonSpecStalls       11419491                       # The number of times commit has been forced to stall to communicate backwards
system.cpu0.commit.commitSquashedInsts      107521203                       # The number of squashed insts skipped by commit
system.cpu0.commit.committedInsts          2225033271                       # Number of instructions committed
system.cpu0.commit.committedOps            2228840422                       # Number of ops (including micro ops) committed
system.cpu0.commit.committed_per_cycle::samples   4041539000                       # Number of insts commited each cycle
system.cpu0.commit.committed_per_cycle::mean     0.551483                       # Number of insts commited each cycle
system.cpu0.commit.committed_per_cycle::stdev     1.311769                       # Number of insts commited each cycle
system.cpu0.commit.committed_per_cycle::underflows            0      0.00%      0.00% # Number of insts commited each cycle
system.cpu0.commit.committed_per_cycle::0   2943677283     72.84%     72.84% # Number of insts commited each cycle
system.cpu0.commit.committed_per_cycle::1    676302413     16.73%     89.57% # Number of insts commited each cycle
system.cpu0.commit.committed_per_cycle::2    144079469      3.56%     93.13% # Number of insts commited each cycle
system.cpu0.commit.committed_per_cycle::3    145519846      3.60%     96.73% # Number of insts commited each cycle
system.cpu0.commit.committed_per_cycle::4     40710524      1.01%     97.74% # Number of insts commited each cycle
system.cpu0.commit.committed_per_cycle::5     15748548      0.39%     98.13% # Number of insts commited each cycle
system.cpu0.commit.committed_per_cycle::6      5373107      0.13%     98.26% # Number of insts commited each cycle
system.cpu0.commit.committed_per_cycle::7      7026425      0.17%     98.44% # Number of insts commited each cycle
system.cpu0.commit.committed_per_cycle::8     63101385      1.56%    100.00% # Number of insts commited each cycle
system.cpu0.commit.committed_per_cycle::overflows            0      0.00%    100.00% # Number of insts commited each cycle
system.cpu0.commit.committed_per_cycle::min_value            0                       # Number of insts commited each cycle
system.cpu0.commit.committed_per_cycle::max_value            8                       # Number of insts commited each cycle
system.cpu0.commit.committed_per_cycle::total   4041539000                       # Number of insts commited each cycle
system.cpu0.commit.fp_insts                        46                       # Number of committed floating point instructions.
system.cpu0.commit.function_calls            44168716                       # Number of function calls committed.
system.cpu0.commit.int_insts               2151131001                       # Number of committed integer instructions.
system.cpu0.commit.loads                    691589246                       # Number of loads committed
system.cpu0.commit.membars                    7608879                       # Number of memory barriers committed
system.cpu0.commit.op_class_0::No_OpClass      7608885      0.34%      0.34% # Class of committed instruction
system.cpu0.commit.op_class_0::IntAlu      1238928482     55.59%     55.93% # Class of committed instruction
system.cpu0.commit.op_class_0::IntMult       18316825      0.82%     56.75% # Class of committed instruction
system.cpu0.commit.op_class_0::IntDiv         3801411      0.17%     56.92% # Class of committed instruction
system.cpu0.commit.op_class_0::FloatAdd             0      0.00%     56.92% # Class of committed instruction
system.cpu0.commit.op_class_0::FloatCmp             4      0.00%     56.92% # Class of committed instruction
system.cpu0.commit.op_class_0::FloatCvt            12      0.00%     56.92% # Class of committed instruction
system.cpu0.commit.op_class_0::FloatMult            0      0.00%     56.92% # Class of committed instruction
system.cpu0.commit.op_class_0::FloatMultAcc            0      0.00%     56.92% # Class of committed instruction
system.cpu0.commit.op_class_0::FloatDiv             2      0.00%     56.92% # Class of committed instruction
system.cpu0.commit.op_class_0::FloatMisc            4      0.00%     56.92% # Class of committed instruction
system.cpu0.commit.op_class_0::FloatSqrt            0      0.00%     56.92% # Class of committed instruction
system.cpu0.commit.op_class_0::SimdAdd              0      0.00%     56.92% # Class of committed instruction
system.cpu0.commit.op_class_0::SimdAddAcc            0      0.00%     56.92% # Class of committed instruction
system.cpu0.commit.op_class_0::SimdAlu              0      0.00%     56.92% # Class of committed instruction
system.cpu0.commit.op_class_0::SimdCmp              0      0.00%     56.92% # Class of committed instruction
system.cpu0.commit.op_class_0::SimdCvt              0      0.00%     56.92% # Class of committed instruction
system.cpu0.commit.op_class_0::SimdMisc             0      0.00%     56.92% # Class of committed instruction
system.cpu0.commit.op_class_0::SimdMult             0      0.00%     56.92% # Class of committed instruction
system.cpu0.commit.op_class_0::SimdMultAcc            0      0.00%     56.92% # Class of committed instruction
system.cpu0.commit.op_class_0::SimdShift            0      0.00%     56.92% # Class of committed instruction
system.cpu0.commit.op_class_0::SimdShiftAcc            0      0.00%     56.92% # Class of committed instruction
system.cpu0.commit.op_class_0::SimdDiv              0      0.00%     56.92% # Class of committed instruction
system.cpu0.commit.op_class_0::SimdSqrt             0      0.00%     56.92% # Class of committed instruction
system.cpu0.commit.op_class_0::SimdFloatAdd            0      0.00%     56.92% # Class of committed instruction
system.cpu0.commit.op_class_0::SimdFloatAlu            0      0.00%     56.92% # Class of committed instruction
system.cpu0.commit.op_class_0::SimdFloatCmp            0      0.00%     56.92% # Class of committed instruction
system.cpu0.commit.op_class_0::SimdFloatCvt            0      0.00%     56.92% # Class of committed instruction
system.cpu0.commit.op_class_0::SimdFloatDiv            0      0.00%     56.92% # Class of committed instruction
system.cpu0.commit.op_class_0::SimdFloatMisc            0      0.00%     56.92% # Class of committed instruction
system.cpu0.commit.op_class_0::SimdFloatMult            0      0.00%     56.92% # Class of committed instruction
system.cpu0.commit.op_class_0::SimdFloatMultAcc            0      0.00%     56.92% # Class of committed instruction
system.cpu0.commit.op_class_0::SimdFloatSqrt            0      0.00%     56.92% # Class of committed instruction
system.cpu0.commit.op_class_0::SimdReduceAdd            0      0.00%     56.92% # Class of committed instruction
system.cpu0.commit.op_class_0::SimdReduceAlu            0      0.00%     56.92% # Class of committed instruction
system.cpu0.commit.op_class_0::SimdReduceCmp            0      0.00%     56.92% # Class of committed instruction
system.cpu0.commit.op_class_0::SimdFloatReduceAdd            0      0.00%     56.92% # Class of committed instruction
system.cpu0.commit.op_class_0::SimdFloatReduceCmp            0      0.00%     56.92% # Class of committed instruction
system.cpu0.commit.op_class_0::SimdAes              0      0.00%     56.92% # Class of committed instruction
system.cpu0.commit.op_class_0::SimdAesMix            0      0.00%     56.92% # Class of committed instruction
system.cpu0.commit.op_class_0::SimdSha1Hash            0      0.00%     56.92% # Class of committed instruction
system.cpu0.commit.op_class_0::SimdSha1Hash2            0      0.00%     56.92% # Class of committed instruction
system.cpu0.commit.op_class_0::SimdSha256Hash            0      0.00%     56.92% # Class of committed instruction
system.cpu0.commit.op_class_0::SimdSha256Hash2            0      0.00%     56.92% # Class of committed instruction
system.cpu0.commit.op_class_0::SimdShaSigma2            0      0.00%     56.92% # Class of committed instruction
system.cpu0.commit.op_class_0::SimdShaSigma3            0      0.00%     56.92% # Class of committed instruction
system.cpu0.commit.op_class_0::SimdPredAlu            0      0.00%     56.92% # Class of committed instruction
system.cpu0.commit.op_class_0::MemRead      695391105     31.20%     88.12% # Class of committed instruction
system.cpu0.commit.op_class_0::MemWrite     264793668     11.88%    100.00% # Class of committed instruction
system.cpu0.commit.op_class_0::FloatMemRead            8      0.00%    100.00% # Class of committed instruction
system.cpu0.commit.op_class_0::FloatMemWrite           16      0.00%    100.00% # Class of committed instruction
system.cpu0.commit.op_class_0::IprAccess            0      0.00%    100.00% # Class of committed instruction
system.cpu0.commit.op_class_0::InstPrefetch            0      0.00%    100.00% # Class of committed instruction
system.cpu0.commit.op_class_0::total       2228840422                       # Class of committed instruction
system.cpu0.commit.refs                     960184797                       # Number of memory references committed
system.cpu0.commit.swp_count                        0                       # Number of s/w prefetches committed
system.cpu0.commit.vec_insts                        0                       # Number of committed Vector instructions.
system.cpu0.committedInsts                 2225033271                       # Number of Instructions Simulated
system.cpu0.committedOps                   2228840422                       # Number of Ops (including micro ops) Simulated
system.cpu0.cpi                              1.953832                       # CPI: Cycles Per Instruction
system.cpu0.cpi_total                        1.953832                       # CPI: Total CPI of All Threads
system.cpu0.decode.BlockedCycles            732862969                       # Number of cycles decode is blocked
system.cpu0.decode.BranchMispred              5775264                       # Number of times decode detected a branch misprediction
system.cpu0.decode.BranchResolved           292051999                       # Number of times decode resolved a branch
system.cpu0.decode.DecodedInsts            2369900917                       # Number of instructions handled by decode
system.cpu0.decode.IdleCycles              1667046468                       # Number of cycles decode is idle
system.cpu0.decode.RunCycles               1639478080                       # Number of cycles decode is running
system.cpu0.decode.SquashCycles              13792551                       # Number of cycles decode is squashing
system.cpu0.decode.SquashedInsts             10848929                       # Number of squashed instructions handled by decode
system.cpu0.decode.UnblockCycles             10980852                       # Number of cycles decode is unblocking
system.cpu0.dtb.accesses                            0                       # DTB accesses
system.cpu0.dtb.hits                                0                       # DTB hits
system.cpu0.dtb.misses                              0                       # DTB misses
system.cpu0.dtb.read_accesses                       0                       # DTB read accesses
system.cpu0.dtb.read_hits                           0                       # DTB read hits
system.cpu0.dtb.read_misses                         0                       # DTB read misses
system.cpu0.dtb.write_accesses                      0                       # DTB write accesses
system.cpu0.dtb.write_hits                          0                       # DTB write hits
system.cpu0.dtb.write_misses                        0                       # DTB write misses
system.cpu0.fetch.Branches                  584212205                       # Number of branches that fetch encountered
system.cpu0.fetch.CacheLines                415214877                       # Number of cache lines fetched
system.cpu0.fetch.Cycles                   2387932485                       # Number of cycles fetch has run and was not squashing or blocked
system.cpu0.fetch.IcacheSquashes              8849464                       # Number of outstanding Icache misses that were squashed
system.cpu0.fetch.IcacheWaitRetryStallCycles          296                       # Number of stall cycles due to full MSHR
system.cpu0.fetch.Insts                    2392762128                       # Number of instructions fetch has processed
system.cpu0.fetch.MiscStallCycles                 108                       # Number of cycles fetch has spent waiting on interrupts, or bad addresses, or out of MSHRs
system.cpu0.fetch.PendingTrapStallCycles          126                       # Number of stall cycles due to pending traps
system.cpu0.fetch.SquashCycles               39099852                       # Number of cycles fetch has spent squashing
system.cpu0.fetch.branchRate                 0.134384                       # Number of branch fetches per cycle
system.cpu0.fetch.icacheStallCycles        1656677979                       # Number of cycles fetch is stalled on an Icache miss
system.cpu0.fetch.predictedBranches         332575826                       # Number of branches that fetch has predicted taken
system.cpu0.fetch.rate                       0.550397                       # Number of inst fetches per cycle
system.cpu0.fetch.rateDist::samples        4064160920                       # Number of instructions fetched each cycle (Total)
system.cpu0.fetch.rateDist::mean             0.589684                       # Number of instructions fetched each cycle (Total)
system.cpu0.fetch.rateDist::stdev            0.876523                       # Number of instructions fetched each cycle (Total)
system.cpu0.fetch.rateDist::underflows              0      0.00%      0.00% # Number of instructions fetched each cycle (Total)
system.cpu0.fetch.rateDist::0              2352888722     57.89%     57.89% # Number of instructions fetched each cycle (Total)
system.cpu0.fetch.rateDist::1              1269490897     31.24%     89.13% # Number of instructions fetched each cycle (Total)
system.cpu0.fetch.rateDist::2               267307672      6.58%     95.71% # Number of instructions fetched each cycle (Total)
system.cpu0.fetch.rateDist::3               142506484      3.51%     99.21% # Number of instructions fetched each cycle (Total)
system.cpu0.fetch.rateDist::4                14284579      0.35%     99.56% # Number of instructions fetched each cycle (Total)
system.cpu0.fetch.rateDist::5                 9714681      0.24%     99.80% # Number of instructions fetched each cycle (Total)
system.cpu0.fetch.rateDist::6                  350803      0.01%     99.81% # Number of instructions fetched each cycle (Total)
system.cpu0.fetch.rateDist::7                 3809105      0.09%     99.91% # Number of instructions fetched each cycle (Total)
system.cpu0.fetch.rateDist::8                 3807977      0.09%    100.00% # Number of instructions fetched each cycle (Total)
system.cpu0.fetch.rateDist::overflows               0      0.00%    100.00% # Number of instructions fetched each cycle (Total)
system.cpu0.fetch.rateDist::min_value               0                       # Number of instructions fetched each cycle (Total)
system.cpu0.fetch.rateDist::max_value               8                       # Number of instructions fetched each cycle (Total)
system.cpu0.fetch.rateDist::total          4064160920                       # Number of instructions fetched each cycle (Total)
system.cpu0.fp_regfile_reads                       40                       # number of floating regfile reads
system.cpu0.fp_regfile_writes                      22                       # number of floating regfile writes
system.cpu0.idleCycles                      283179920                       # Total number of cycles that the CPU has spent unscheduled due to idling
system.cpu0.iew.branchMispredicts            13988284                       # Number of branch mispredicts detected at execute
system.cpu0.iew.exec_branches               566713882                       # Number of branches executed
system.cpu0.iew.exec_nop                            0                       # number of nop insts executed
system.cpu0.iew.exec_rate                    0.533055                       # Inst execution rate
system.cpu0.iew.exec_refs                  1010614603                       # number of memory reference insts executed
system.cpu0.iew.exec_stores                 274275077                       # Number of stores executed
system.cpu0.iew.exec_swp                            0                       # number of swp insts executed
system.cpu0.iew.iewBlockCycles              591528332                       # Number of cycles IEW is blocking
system.cpu0.iew.iewDispLoadInsts            734124544                       # Number of dispatched load instructions
system.cpu0.iew.iewDispNonSpecInsts           3810807                       # Number of dispatched non-speculative instructions
system.cpu0.iew.iewDispSquashedInsts          4375119                       # Number of squashed instructions skipped by dispatch
system.cpu0.iew.iewDispStoreInsts           279150764                       # Number of dispatched store instructions
system.cpu0.iew.iewDispatchedInsts         2336310422                       # Number of instructions dispatched to IQ
system.cpu0.iew.iewExecLoadInsts            736339526                       # Number of load instructions executed
system.cpu0.iew.iewExecSquashedInsts         13081866                       # Number of squashed instructions skipped in execute
system.cpu0.iew.iewExecutedInsts           2317373119                       # Number of executed instructions
system.cpu0.iew.iewIQFullEvents               2291474                       # Number of times the IQ has become full, causing a stall
system.cpu0.iew.iewIdleCycles                       0                       # Number of cycles IEW is idle
system.cpu0.iew.iewLSQFullEvents             11615486                       # Number of times the LSQ has become full, causing a stall
system.cpu0.iew.iewSquashCycles              13792551                       # Number of cycles IEW is squashing
system.cpu0.iew.iewUnblockCycles             18785707                       # Number of cycles IEW is unblocking
system.cpu0.iew.lsq.thread0.blockedLoads            0                       # Number of blocked loads due to partial load-store forwarding
system.cpu0.iew.lsq.thread0.cacheBlocked       455584                       # Number of times an access to memory failed due to the cache being blocked
system.cpu0.iew.lsq.thread0.forwLoads        34338328                       # Number of loads that had data forwarded from stores
system.cpu0.iew.lsq.thread0.ignoredResponses        76212                       # Number of memory responses ignored because the instruction is squashed
system.cpu0.iew.lsq.thread0.invAddrLoads            0                       # Number of loads ignored due to an invalid address
system.cpu0.iew.lsq.thread0.invAddrSwpfs            0                       # Number of software prefetches ignored due to an invalid address
system.cpu0.iew.lsq.thread0.memOrderViolation        23540                       # Number of memory ordering violations
system.cpu0.iew.lsq.thread0.rescheduledLoads      8712531                       # Number of loads that were rescheduled
system.cpu0.iew.lsq.thread0.squashedLoads     42535298                       # Number of loads squashed
system.cpu0.iew.lsq.thread0.squashedStores     10555213                       # Number of stores squashed
system.cpu0.iew.memOrderViolationEvents         23540                       # Number of memory order violations
system.cpu0.iew.predictedNotTakenIncorrect      1988549                       # Number of branches that were predicted not taken incorrectly
system.cpu0.iew.predictedTakenIncorrect      11999735                       # Number of branches that were predicted taken incorrectly
system.cpu0.iew.wb_consumers                952821421                       # num instructions consuming a value
system.cpu0.iew.wb_count                   2295690750                       # cumulative count of insts written-back
system.cpu0.iew.wb_fanout                    0.892832                       # average fanout of values written-back
system.cpu0.iew.wb_producers                850709689                       # num instructions producing a value
system.cpu0.iew.wb_rate                      0.528068                       # insts written-back per cycle
system.cpu0.iew.wb_sent                    2295871669                       # cumulative count of insts sent to commit
system.cpu0.int_regfile_reads              2828123825                       # number of integer regfile reads
system.cpu0.int_regfile_writes             1471435092                       # number of integer regfile writes
system.cpu0.ipc                              0.511815                       # IPC: Instructions Per Cycle
system.cpu0.ipc_total                        0.511815                       # IPC: Total IPC of All Threads
system.cpu0.iq.FU_type_0::No_OpClass          7611774      0.33%      0.33% # Type of FU issued
system.cpu0.iq.FU_type_0::IntAlu           1282612631     55.04%     55.36% # Type of FU issued
system.cpu0.iq.FU_type_0::IntMult            18332512      0.79%     56.15% # Type of FU issued
system.cpu0.iq.FU_type_0::IntDiv              3802435      0.16%     56.31% # Type of FU issued
system.cpu0.iq.FU_type_0::FloatAdd                  0      0.00%     56.31% # Type of FU issued
system.cpu0.iq.FU_type_0::FloatCmp                  4      0.00%     56.31% # Type of FU issued
system.cpu0.iq.FU_type_0::FloatCvt                 12      0.00%     56.31% # Type of FU issued
system.cpu0.iq.FU_type_0::FloatMult                 0      0.00%     56.31% # Type of FU issued
system.cpu0.iq.FU_type_0::FloatMultAcc              0      0.00%     56.31% # Type of FU issued
system.cpu0.iq.FU_type_0::FloatDiv                  2      0.00%     56.31% # Type of FU issued
system.cpu0.iq.FU_type_0::FloatMisc                 4      0.00%     56.31% # Type of FU issued
system.cpu0.iq.FU_type_0::FloatSqrt                 0      0.00%     56.31% # Type of FU issued
system.cpu0.iq.FU_type_0::SimdAdd                   0      0.00%     56.31% # Type of FU issued
system.cpu0.iq.FU_type_0::SimdAddAcc                0      0.00%     56.31% # Type of FU issued
system.cpu0.iq.FU_type_0::SimdAlu                   0      0.00%     56.31% # Type of FU issued
system.cpu0.iq.FU_type_0::SimdCmp                   0      0.00%     56.31% # Type of FU issued
system.cpu0.iq.FU_type_0::SimdCvt                   0      0.00%     56.31% # Type of FU issued
system.cpu0.iq.FU_type_0::SimdMisc                  0      0.00%     56.31% # Type of FU issued
system.cpu0.iq.FU_type_0::SimdMult                  0      0.00%     56.31% # Type of FU issued
system.cpu0.iq.FU_type_0::SimdMultAcc               0      0.00%     56.31% # Type of FU issued
system.cpu0.iq.FU_type_0::SimdShift                 0      0.00%     56.31% # Type of FU issued
system.cpu0.iq.FU_type_0::SimdShiftAcc              0      0.00%     56.31% # Type of FU issued
system.cpu0.iq.FU_type_0::SimdDiv                   0      0.00%     56.31% # Type of FU issued
system.cpu0.iq.FU_type_0::SimdSqrt                  0      0.00%     56.31% # Type of FU issued
system.cpu0.iq.FU_type_0::SimdFloatAdd              0      0.00%     56.31% # Type of FU issued
system.cpu0.iq.FU_type_0::SimdFloatAlu              0      0.00%     56.31% # Type of FU issued
system.cpu0.iq.FU_type_0::SimdFloatCmp              0      0.00%     56.31% # Type of FU issued
system.cpu0.iq.FU_type_0::SimdFloatCvt              0      0.00%     56.31% # Type of FU issued
system.cpu0.iq.FU_type_0::SimdFloatDiv              0      0.00%     56.31% # Type of FU issued
system.cpu0.iq.FU_type_0::SimdFloatMisc             0      0.00%     56.31% # Type of FU issued
system.cpu0.iq.FU_type_0::SimdFloatMult             0      0.00%     56.31% # Type of FU issued
system.cpu0.iq.FU_type_0::SimdFloatMultAcc            0      0.00%     56.31% # Type of FU issued
system.cpu0.iq.FU_type_0::SimdFloatSqrt             0      0.00%     56.31% # Type of FU issued
system.cpu0.iq.FU_type_0::SimdReduceAdd             0      0.00%     56.31% # Type of FU issued
system.cpu0.iq.FU_type_0::SimdReduceAlu             0      0.00%     56.31% # Type of FU issued
system.cpu0.iq.FU_type_0::SimdReduceCmp             0      0.00%     56.31% # Type of FU issued
system.cpu0.iq.FU_type_0::SimdFloatReduceAdd            0      0.00%     56.31% # Type of FU issued
system.cpu0.iq.FU_type_0::SimdFloatReduceCmp            0      0.00%     56.31% # Type of FU issued
system.cpu0.iq.FU_type_0::SimdAes                   0      0.00%     56.31% # Type of FU issued
system.cpu0.iq.FU_type_0::SimdAesMix                0      0.00%     56.31% # Type of FU issued
system.cpu0.iq.FU_type_0::SimdSha1Hash              0      0.00%     56.31% # Type of FU issued
system.cpu0.iq.FU_type_0::SimdSha1Hash2             0      0.00%     56.31% # Type of FU issued
system.cpu0.iq.FU_type_0::SimdSha256Hash            0      0.00%     56.31% # Type of FU issued
system.cpu0.iq.FU_type_0::SimdSha256Hash2            0      0.00%     56.31% # Type of FU issued
system.cpu0.iq.FU_type_0::SimdShaSigma2             0      0.00%     56.31% # Type of FU issued
system.cpu0.iq.FU_type_0::SimdShaSigma3             0      0.00%     56.31% # Type of FU issued
system.cpu0.iq.FU_type_0::SimdPredAlu               0      0.00%     56.31% # Type of FU issued
system.cpu0.iq.FU_type_0::MemRead           744367453     31.94%     88.25% # Type of FU issued
system.cpu0.iq.FU_type_0::MemWrite          273728135     11.75%    100.00% # Type of FU issued
system.cpu0.iq.FU_type_0::FloatMemRead              8      0.00%    100.00% # Type of FU issued
system.cpu0.iq.FU_type_0::FloatMemWrite            16      0.00%    100.00% # Type of FU issued
system.cpu0.iq.FU_type_0::IprAccess                 0      0.00%    100.00% # Type of FU issued
system.cpu0.iq.FU_type_0::InstPrefetch              0      0.00%    100.00% # Type of FU issued
system.cpu0.iq.FU_type_0::total            2330454986                       # Type of FU issued
system.cpu0.iq.fp_alu_accesses                     48                       # Number of floating point alu accesses
system.cpu0.iq.fp_inst_queue_reads                 94                       # Number of floating instruction queue reads
system.cpu0.iq.fp_inst_queue_wakeup_accesses           46                       # Number of floating instruction queue wakeup accesses
system.cpu0.iq.fp_inst_queue_writes                46                       # Number of floating instruction queue writes
system.cpu0.iq.fu_busy_cnt                    5281361                       # FU busy when requested
system.cpu0.iq.fu_busy_rate                  0.002266                       # FU busy rate (busy events/executed inst)
system.cpu0.iq.fu_full::No_OpClass                  0      0.00%      0.00% # attempts to use FU when none available
system.cpu0.iq.fu_full::IntAlu                1047308     19.83%     19.83% # attempts to use FU when none available
system.cpu0.iq.fu_full::IntMult                     0      0.00%     19.83% # attempts to use FU when none available
system.cpu0.iq.fu_full::IntDiv                      0      0.00%     19.83% # attempts to use FU when none available
system.cpu0.iq.fu_full::FloatAdd                    0      0.00%     19.83% # attempts to use FU when none available
system.cpu0.iq.fu_full::FloatCmp                    0      0.00%     19.83% # attempts to use FU when none available
system.cpu0.iq.fu_full::FloatCvt                    0      0.00%     19.83% # attempts to use FU when none available
system.cpu0.iq.fu_full::FloatMult                   0      0.00%     19.83% # attempts to use FU when none available
system.cpu0.iq.fu_full::FloatMultAcc                0      0.00%     19.83% # attempts to use FU when none available
system.cpu0.iq.fu_full::FloatDiv                    0      0.00%     19.83% # attempts to use FU when none available
system.cpu0.iq.fu_full::FloatMisc                   0      0.00%     19.83% # attempts to use FU when none available
system.cpu0.iq.fu_full::FloatSqrt                   0      0.00%     19.83% # attempts to use FU when none available
system.cpu0.iq.fu_full::SimdAdd                     0      0.00%     19.83% # attempts to use FU when none available
system.cpu0.iq.fu_full::SimdAddAcc                  0      0.00%     19.83% # attempts to use FU when none available
system.cpu0.iq.fu_full::SimdAlu                     0      0.00%     19.83% # attempts to use FU when none available
system.cpu0.iq.fu_full::SimdCmp                     0      0.00%     19.83% # attempts to use FU when none available
system.cpu0.iq.fu_full::SimdCvt                     0      0.00%     19.83% # attempts to use FU when none available
system.cpu0.iq.fu_full::SimdMisc                    0      0.00%     19.83% # attempts to use FU when none available
system.cpu0.iq.fu_full::SimdMult                    0      0.00%     19.83% # attempts to use FU when none available
system.cpu0.iq.fu_full::SimdMultAcc                 0      0.00%     19.83% # attempts to use FU when none available
system.cpu0.iq.fu_full::SimdShift                   0      0.00%     19.83% # attempts to use FU when none available
system.cpu0.iq.fu_full::SimdShiftAcc                0      0.00%     19.83% # attempts to use FU when none available
system.cpu0.iq.fu_full::SimdDiv                     0      0.00%     19.83% # attempts to use FU when none available
system.cpu0.iq.fu_full::SimdSqrt                    0      0.00%     19.83% # attempts to use FU when none available
system.cpu0.iq.fu_full::SimdFloatAdd                0      0.00%     19.83% # attempts to use FU when none available
system.cpu0.iq.fu_full::SimdFloatAlu                0      0.00%     19.83% # attempts to use FU when none available
system.cpu0.iq.fu_full::SimdFloatCmp                0      0.00%     19.83% # attempts to use FU when none available
system.cpu0.iq.fu_full::SimdFloatCvt                0      0.00%     19.83% # attempts to use FU when none available
system.cpu0.iq.fu_full::SimdFloatDiv                0      0.00%     19.83% # attempts to use FU when none available
system.cpu0.iq.fu_full::SimdFloatMisc               0      0.00%     19.83% # attempts to use FU when none available
system.cpu0.iq.fu_full::SimdFloatMult               0      0.00%     19.83% # attempts to use FU when none available
system.cpu0.iq.fu_full::SimdFloatMultAcc            0      0.00%     19.83% # attempts to use FU when none available
system.cpu0.iq.fu_full::SimdFloatSqrt               0      0.00%     19.83% # attempts to use FU when none available
system.cpu0.iq.fu_full::SimdReduceAdd               0      0.00%     19.83% # attempts to use FU when none available
system.cpu0.iq.fu_full::SimdReduceAlu               0      0.00%     19.83% # attempts to use FU when none available
system.cpu0.iq.fu_full::SimdReduceCmp               0      0.00%     19.83% # attempts to use FU when none available
system.cpu0.iq.fu_full::SimdFloatReduceAdd            0      0.00%     19.83% # attempts to use FU when none available
system.cpu0.iq.fu_full::SimdFloatReduceCmp            0      0.00%     19.83% # attempts to use FU when none available
system.cpu0.iq.fu_full::SimdAes                     0      0.00%     19.83% # attempts to use FU when none available
system.cpu0.iq.fu_full::SimdAesMix                  0      0.00%     19.83% # attempts to use FU when none available
system.cpu0.iq.fu_full::SimdSha1Hash                0      0.00%     19.83% # attempts to use FU when none available
system.cpu0.iq.fu_full::SimdSha1Hash2               0      0.00%     19.83% # attempts to use FU when none available
system.cpu0.iq.fu_full::SimdSha256Hash              0      0.00%     19.83% # attempts to use FU when none available
system.cpu0.iq.fu_full::SimdSha256Hash2             0      0.00%     19.83% # attempts to use FU when none available
system.cpu0.iq.fu_full::SimdShaSigma2               0      0.00%     19.83% # attempts to use FU when none available
system.cpu0.iq.fu_full::SimdShaSigma3               0      0.00%     19.83% # attempts to use FU when none available
system.cpu0.iq.fu_full::SimdPredAlu                 0      0.00%     19.83% # attempts to use FU when none available
system.cpu0.iq.fu_full::MemRead               3726213     70.55%     90.38% # attempts to use FU when none available
system.cpu0.iq.fu_full::MemWrite               507838      9.62%    100.00% # attempts to use FU when none available
system.cpu0.iq.fu_full::FloatMemRead                0      0.00%    100.00% # attempts to use FU when none available
system.cpu0.iq.fu_full::FloatMemWrite               2      0.00%    100.00% # attempts to use FU when none available
system.cpu0.iq.fu_full::IprAccess                   0      0.00%    100.00% # attempts to use FU when none available
system.cpu0.iq.fu_full::InstPrefetch                0      0.00%    100.00% # attempts to use FU when none available
system.cpu0.iq.int_alu_accesses            2328124525                       # Number of integer alu accesses
system.cpu0.iq.int_inst_queue_reads        8730721782                       # Number of integer instruction queue reads
system.cpu0.iq.int_inst_queue_wakeup_accesses   2295690704                       # Number of integer instruction queue wakeup accesses
system.cpu0.iq.int_inst_queue_writes       2443802440                       # Number of integer instruction queue writes
system.cpu0.iq.iqInstsAdded                2324890568                       # Number of instructions added to the IQ (excludes non-spec)
system.cpu0.iq.iqInstsIssued               2330454986                       # Number of instructions issued
system.cpu0.iq.iqNonSpecInstsAdded           11419854                       # Number of non-speculative instructions added to the IQ
system.cpu0.iq.iqSquashedInstsExamined      107469996                       # Number of squashed instructions iterated over during squash; mainly for profiling
system.cpu0.iq.iqSquashedInstsIssued           369624                       # Number of squashed instructions issued
system.cpu0.iq.iqSquashedNonSpecRemoved           363                       # Number of squashed non-spec instructions that were removed
system.cpu0.iq.iqSquashedOperandsExamined     45363129                       # Number of squashed operands that are examined and possibly removed from graph
system.cpu0.iq.issued_per_cycle::samples   4064160920                       # Number of insts issued each cycle
system.cpu0.iq.issued_per_cycle::mean        0.573416                       # Number of insts issued each cycle
system.cpu0.iq.issued_per_cycle::stdev       0.799845                       # Number of insts issued each cycle
system.cpu0.iq.issued_per_cycle::underflows            0      0.00%      0.00% # Number of insts issued each cycle
system.cpu0.iq.issued_per_cycle::0         2366289368     58.22%     58.22% # Number of insts issued each cycle
system.cpu0.iq.issued_per_cycle::1         1185474009     29.17%     87.39% # Number of insts issued each cycle
system.cpu0.iq.issued_per_cycle::2          424785683     10.45%     97.84% # Number of insts issued each cycle
system.cpu0.iq.issued_per_cycle::3           67135081      1.65%     99.50% # Number of insts issued each cycle
system.cpu0.iq.issued_per_cycle::4           12348404      0.30%     99.80% # Number of insts issued each cycle
system.cpu0.iq.issued_per_cycle::5            5367236      0.13%     99.93% # Number of insts issued each cycle
system.cpu0.iq.issued_per_cycle::6            1897907      0.05%     99.98% # Number of insts issued each cycle
system.cpu0.iq.issued_per_cycle::7             518726      0.01%     99.99% # Number of insts issued each cycle
system.cpu0.iq.issued_per_cycle::8             344506      0.01%    100.00% # Number of insts issued each cycle
system.cpu0.iq.issued_per_cycle::overflows            0      0.00%    100.00% # Number of insts issued each cycle
system.cpu0.iq.issued_per_cycle::min_value            0                       # Number of insts issued each cycle
system.cpu0.iq.issued_per_cycle::max_value            8                       # Number of insts issued each cycle
system.cpu0.iq.issued_per_cycle::total     4064160920                       # Number of insts issued each cycle
system.cpu0.iq.rate                          0.536064                       # Inst issue rate
system.cpu0.iq.vec_alu_accesses                     0                       # Number of vector alu accesses
system.cpu0.iq.vec_inst_queue_reads                 0                       # Number of vector instruction queue reads
system.cpu0.iq.vec_inst_queue_wakeup_accesses            0                       # Number of vector instruction queue wakeup accesses
system.cpu0.iq.vec_inst_queue_writes                0                       # Number of vector instruction queue writes
system.cpu0.itb.accesses                            0                       # DTB accesses
system.cpu0.itb.hits                                0                       # DTB hits
system.cpu0.itb.misses                              0                       # DTB misses
system.cpu0.itb.read_accesses                       0                       # DTB read accesses
system.cpu0.itb.read_hits                           0                       # DTB read hits
system.cpu0.itb.read_misses                         0                       # DTB read misses
system.cpu0.itb.write_accesses                      0                       # DTB write accesses
system.cpu0.itb.write_hits                          0                       # DTB write hits
system.cpu0.itb.write_misses                        0                       # DTB write misses
system.cpu0.memDep0.conflictingLoads         36273096                       # Number of conflicting loads.
system.cpu0.memDep0.conflictingStores         5201002                       # Number of conflicting stores.
system.cpu0.memDep0.insertedLoads           734124544                       # Number of loads inserted to the mem dependence unit.
system.cpu0.memDep0.insertedStores          279150764                       # Number of stores inserted to the mem dependence unit.
system.cpu0.misc_regfile_reads                   2901                       # number of misc regfile reads
system.cpu0.misc_regfile_writes                    22                       # number of misc regfile writes
system.cpu0.numCycles                      4347340840                       # number of cpu cycles simulated
system.cpu0.numWorkItemsCompleted                   0                       # number of work items this cpu completed
system.cpu0.numWorkItemsStarted                     0                       # number of work items this cpu started
system.cpu0.quiesceCycles                     7516096                       # Total number of cycles that CPU has spent quiesced or waiting for an interrupt
system.cpu0.rename.BlockCycles              638348433                       # Number of cycles rename is blocking
system.cpu0.rename.CommittedMaps           1421479442                       # Number of HB maps that are committed
system.cpu0.rename.IQFullEvents              28103686                       # Number of times rename has blocked due to IQ full
system.cpu0.rename.IdleCycles              1683746036                       # Number of cycles rename is idle
system.cpu0.rename.LQFullEvents              24857644                       # Number of times rename has blocked due to LQ full
system.cpu0.rename.ROBFullEvents                58599                       # Number of times rename has blocked due to ROB full
system.cpu0.rename.RenameLookups           2880961036                       # Number of register rename lookups that rename has made
system.cpu0.rename.RenamedInsts            2355926618                       # Number of instructions processed by rename
system.cpu0.rename.RenamedOperands         1514263545                       # Number of destination operands rename has renamed
system.cpu0.rename.RunCycles               1630802159                       # Number of cycles rename is running
system.cpu0.rename.SQFullEvents              43453267                       # Number of times rename has blocked due to SQ full
system.cpu0.rename.SquashCycles              13792551                       # Number of cycles rename is squashing
system.cpu0.rename.UnblockCycles             97240844                       # Number of cycles rename is unblocking
system.cpu0.rename.UndoneMaps                92784095                       # Number of HB maps that are undone due to squashing
system.cpu0.rename.fp_rename_lookups               40                       # Number of floating rename lookups
system.cpu0.rename.int_rename_lookups      2880960996                       # Number of integer rename lookups
system.cpu0.rename.serializeStallCycles        230897                       # count of cycles rename stalled for serializing inst
system.cpu0.rename.serializingInsts              8871                       # count of serializing insts renamed
system.cpu0.rename.skidInsts                 57740997                       # count of insts added to the skid buffer
system.cpu0.rename.tempSerializingInsts          8858                       # count of temporary serializing insts renamed
system.cpu0.rob.rob_reads                  6314762034                       # The number of ROB reads
system.cpu0.rob.rob_writes                 4695402059                       # The number of ROB writes
system.cpu0.timesIdled                       54117731                       # Number of times that the entire CPU went into an idle state and unscheduled itself
system.cpu0.workload.numSyscalls                 2868                       # Number of system calls
system.cpu1.branchPred.BTBCorrect                   0                       # Number of correct BTB predictions (this stat may not work properly.
system.cpu1.branchPred.BTBHitPct            85.411941                       # BTB Hit Percentage
system.cpu1.branchPred.BTBHits               18271957                       # Number of BTB hits
system.cpu1.branchPred.BTBLookups            21392743                       # Number of BTB lookups
system.cpu1.branchPred.RASInCorrect                 0                       # Number of incorrect RAS predictions.
system.cpu1.branchPred.condIncorrect          1783070                       # Number of conditional branches incorrect
system.cpu1.branchPred.condPredicted         33183773                       # Number of conditional branches predicted
system.cpu1.branchPred.indirectHits            919208                       # Number of indirect target hits.
system.cpu1.branchPred.indirectLookups         928448                       # Number of indirect predictor lookups.
system.cpu1.branchPred.indirectMisses            9240                       # Number of indirect misses.
system.cpu1.branchPred.lookups               36377992                       # Number of BP lookups
system.cpu1.branchPred.usedRAS                      0                       # Number of times the RAS was used to get a target.
system.cpu1.branchPredindirectMispredicted        46789                       # Number of mispredicted indirect branches.
system.cpu1.commit.amos                       3801579                       # Number of atomic instructions committed
system.cpu1.commit.branchMispredicts          1378413                       # The number of times a branch was mispredicted
system.cpu1.commit.branches                  29521345                       # Number of branches committed
system.cpu1.commit.bw_lim_events              3501718                       # number cycles where commit BW limit reached
system.cpu1.commit.commitNonSpecStalls       11405426                       # The number of times commit has been forced to stall to communicate backwards
system.cpu1.commit.commitSquashedInsts       16480528                       # The number of squashed insts skipped by commit
system.cpu1.commit.committedInsts           130088454                       # Number of instructions committed
system.cpu1.commit.committedOps             133890215                       # Number of ops (including micro ops) committed
system.cpu1.commit.committed_per_cycle::samples    702508988                       # Number of insts commited each cycle
system.cpu1.commit.committed_per_cycle::mean     0.190589                       # Number of insts commited each cycle
system.cpu1.commit.committed_per_cycle::stdev     0.872199                       # Number of insts commited each cycle
system.cpu1.commit.committed_per_cycle::underflows            0      0.00%      0.00% # Number of insts commited each cycle
system.cpu1.commit.committed_per_cycle::0    648462236     92.31%     92.31% # Number of insts commited each cycle
system.cpu1.commit.committed_per_cycle::1     26453654      3.77%     96.07% # Number of insts commited each cycle
system.cpu1.commit.committed_per_cycle::2      8367351      1.19%     97.26% # Number of insts commited each cycle
system.cpu1.commit.committed_per_cycle::3      8778353      1.25%     98.51% # Number of insts commited each cycle
system.cpu1.commit.committed_per_cycle::4      2436977      0.35%     98.86% # Number of insts commited each cycle
system.cpu1.commit.committed_per_cycle::5       703584      0.10%     98.96% # Number of insts commited each cycle
system.cpu1.commit.committed_per_cycle::6      3548577      0.51%     99.47% # Number of insts commited each cycle
system.cpu1.commit.committed_per_cycle::7       256538      0.04%     99.50% # Number of insts commited each cycle
system.cpu1.commit.committed_per_cycle::8      3501718      0.50%    100.00% # Number of insts commited each cycle
system.cpu1.commit.committed_per_cycle::overflows            0      0.00%    100.00% # Number of insts commited each cycle
system.cpu1.commit.committed_per_cycle::min_value            0                       # Number of insts commited each cycle
system.cpu1.commit.committed_per_cycle::max_value            8                       # Number of insts commited each cycle
system.cpu1.commit.committed_per_cycle::total    702508988                       # Number of insts commited each cycle
system.cpu1.commit.fp_insts                        12                       # Number of committed floating point instructions.
system.cpu1.commit.function_calls             1457677                       # Number of function calls committed.
system.cpu1.commit.int_insts                125294057                       # Number of committed integer instructions.
system.cpu1.commit.loads                     36893315                       # Number of loads committed
system.cpu1.commit.membars                    7603287                       # Number of memory barriers committed
system.cpu1.commit.op_class_0::No_OpClass      7603287      5.68%      5.68% # Class of committed instruction
system.cpu1.commit.op_class_0::IntAlu        77466229     57.86%     63.54% # Class of committed instruction
system.cpu1.commit.op_class_0::IntMult             44      0.00%     63.54% # Class of committed instruction
system.cpu1.commit.op_class_0::IntDiv              88      0.00%     63.54% # Class of committed instruction
system.cpu1.commit.op_class_0::FloatAdd             0      0.00%     63.54% # Class of committed instruction
system.cpu1.commit.op_class_0::FloatCmp             0      0.00%     63.54% # Class of committed instruction
system.cpu1.commit.op_class_0::FloatCvt             0      0.00%     63.54% # Class of committed instruction
system.cpu1.commit.op_class_0::FloatMult            0      0.00%     63.54% # Class of committed instruction
system.cpu1.commit.op_class_0::FloatMultAcc            0      0.00%     63.54% # Class of committed instruction
system.cpu1.commit.op_class_0::FloatDiv             0      0.00%     63.54% # Class of committed instruction
system.cpu1.commit.op_class_0::FloatMisc            0      0.00%     63.54% # Class of committed instruction
system.cpu1.commit.op_class_0::FloatSqrt            0      0.00%     63.54% # Class of committed instruction
system.cpu1.commit.op_class_0::SimdAdd              0      0.00%     63.54% # Class of committed instruction
system.cpu1.commit.op_class_0::SimdAddAcc            0      0.00%     63.54% # Class of committed instruction
system.cpu1.commit.op_class_0::SimdAlu              0      0.00%     63.54% # Class of committed instruction
system.cpu1.commit.op_class_0::SimdCmp              0      0.00%     63.54% # Class of committed instruction
system.cpu1.commit.op_class_0::SimdCvt              0      0.00%     63.54% # Class of committed instruction
system.cpu1.commit.op_class_0::SimdMisc             0      0.00%     63.54% # Class of committed instruction
system.cpu1.commit.op_class_0::SimdMult             0      0.00%     63.54% # Class of committed instruction
system.cpu1.commit.op_class_0::SimdMultAcc            0      0.00%     63.54% # Class of committed instruction
system.cpu1.commit.op_class_0::SimdShift            0      0.00%     63.54% # Class of committed instruction
system.cpu1.commit.op_class_0::SimdShiftAcc            0      0.00%     63.54% # Class of committed instruction
system.cpu1.commit.op_class_0::SimdDiv              0      0.00%     63.54% # Class of committed instruction
system.cpu1.commit.op_class_0::SimdSqrt             0      0.00%     63.54% # Class of committed instruction
system.cpu1.commit.op_class_0::SimdFloatAdd            0      0.00%     63.54% # Class of committed instruction
system.cpu1.commit.op_class_0::SimdFloatAlu            0      0.00%     63.54% # Class of committed instruction
system.cpu1.commit.op_class_0::SimdFloatCmp            0      0.00%     63.54% # Class of committed instruction
system.cpu1.commit.op_class_0::SimdFloatCvt            0      0.00%     63.54% # Class of committed instruction
system.cpu1.commit.op_class_0::SimdFloatDiv            0      0.00%     63.54% # Class of committed instruction
system.cpu1.commit.op_class_0::SimdFloatMisc            0      0.00%     63.54% # Class of committed instruction
system.cpu1.commit.op_class_0::SimdFloatMult            0      0.00%     63.54% # Class of committed instruction
system.cpu1.commit.op_class_0::SimdFloatMultAcc            0      0.00%     63.54% # Class of committed instruction
system.cpu1.commit.op_class_0::SimdFloatSqrt            0      0.00%     63.54% # Class of committed instruction
system.cpu1.commit.op_class_0::SimdReduceAdd            0      0.00%     63.54% # Class of committed instruction
system.cpu1.commit.op_class_0::SimdReduceAlu            0      0.00%     63.54% # Class of committed instruction
system.cpu1.commit.op_class_0::SimdReduceCmp            0      0.00%     63.54% # Class of committed instruction
system.cpu1.commit.op_class_0::SimdFloatReduceAdd            0      0.00%     63.54% # Class of committed instruction
system.cpu1.commit.op_class_0::SimdFloatReduceCmp            0      0.00%     63.54% # Class of committed instruction
system.cpu1.commit.op_class_0::SimdAes              0      0.00%     63.54% # Class of committed instruction
system.cpu1.commit.op_class_0::SimdAesMix            0      0.00%     63.54% # Class of committed instruction
system.cpu1.commit.op_class_0::SimdSha1Hash            0      0.00%     63.54% # Class of committed instruction
system.cpu1.commit.op_class_0::SimdSha1Hash2            0      0.00%     63.54% # Class of committed instruction
system.cpu1.commit.op_class_0::SimdSha256Hash            0      0.00%     63.54% # Class of committed instruction
system.cpu1.commit.op_class_0::SimdSha256Hash2            0      0.00%     63.54% # Class of committed instruction
system.cpu1.commit.op_class_0::SimdShaSigma2            0      0.00%     63.54% # Class of committed instruction
system.cpu1.commit.op_class_0::SimdShaSigma3            0      0.00%     63.54% # Class of committed instruction
system.cpu1.commit.op_class_0::SimdPredAlu            0      0.00%     63.54% # Class of committed instruction
system.cpu1.commit.op_class_0::MemRead       40694894     30.39%     93.93% # Class of committed instruction
system.cpu1.commit.op_class_0::MemWrite       8125661      6.07%    100.00% # Class of committed instruction
system.cpu1.commit.op_class_0::FloatMemRead            0      0.00%    100.00% # Class of committed instruction
system.cpu1.commit.op_class_0::FloatMemWrite           12      0.00%    100.00% # Class of committed instruction
system.cpu1.commit.op_class_0::IprAccess            0      0.00%    100.00% # Class of committed instruction
system.cpu1.commit.op_class_0::InstPrefetch            0      0.00%    100.00% # Class of committed instruction
system.cpu1.commit.op_class_0::total        133890215                       # Class of committed instruction
system.cpu1.commit.refs                      48820567                       # Number of memory references committed
system.cpu1.commit.swp_count                        0                       # Number of s/w prefetches committed
system.cpu1.commit.vec_insts                        0                       # Number of committed Vector instructions.
system.cpu1.committedInsts                  130088454                       # Number of Instructions Simulated
system.cpu1.committedOps                    133890215                       # Number of Ops (including micro ops) Simulated
system.cpu1.cpi                              5.430110                       # CPI: Cycles Per Instruction
system.cpu1.cpi_total                        5.430110                       # CPI: Total CPI of All Threads
system.cpu1.decode.BlockedCycles            627410279                       # Number of cycles decode is blocked
system.cpu1.decode.BranchMispred               422650                       # Number of times decode detected a branch misprediction
system.cpu1.decode.BranchResolved            17530813                       # Number of times decode resolved a branch
system.cpu1.decode.DecodedInsts             156574469                       # Number of instructions handled by decode
system.cpu1.decode.IdleCycles                18028066                       # Number of cycles decode is idle
system.cpu1.decode.RunCycles                 49882283                       # Number of cycles decode is running
system.cpu1.decode.SquashCycles               1380221                       # Number of cycles decode is squashing
system.cpu1.decode.SquashedInsts              1133670                       # Number of squashed instructions handled by decode
system.cpu1.decode.UnblockCycles              8793650                       # Number of cycles decode is unblocking
system.cpu1.dtb.accesses                            0                       # DTB accesses
system.cpu1.dtb.hits                                0                       # DTB hits
system.cpu1.dtb.misses                              0                       # DTB misses
system.cpu1.dtb.read_accesses                       0                       # DTB read accesses
system.cpu1.dtb.read_hits                           0                       # DTB read hits
system.cpu1.dtb.read_misses                         0                       # DTB read misses
system.cpu1.dtb.write_accesses                      0                       # DTB write accesses
system.cpu1.dtb.write_hits                          0                       # DTB write hits
system.cpu1.dtb.write_misses                        0                       # DTB write misses
system.cpu1.fetch.Branches                   36377992                       # Number of branches that fetch encountered
system.cpu1.fetch.CacheLines                 19851032                       # Number of cache lines fetched
system.cpu1.fetch.Cycles                    682626410                       # Number of cycles fetch has run and was not squashing or blocked
system.cpu1.fetch.IcacheSquashes               152080                       # Number of outstanding Icache misses that were squashed
system.cpu1.fetch.Insts                     158157432                       # Number of instructions fetch has processed
system.cpu1.fetch.MiscStallCycles                   1                       # Number of cycles fetch has spent waiting on interrupts, or bad addresses, or out of MSHRs
system.cpu1.fetch.SquashCycles                3569756                       # Number of cycles fetch has spent squashing
system.cpu1.fetch.branchRate                 0.051498                       # Number of branch fetches per cycle
system.cpu1.fetch.icacheStallCycles          21083210                       # Number of cycles fetch is stalled on an Icache miss
system.cpu1.fetch.predictedBranches          19191165                       # Number of branches that fetch has predicted taken
system.cpu1.fetch.rate                       0.223894                       # Number of inst fetches per cycle
system.cpu1.fetch.rateDist::samples         705494499                       # Number of instructions fetched each cycle (Total)
system.cpu1.fetch.rateDist::mean             0.229569                       # Number of instructions fetched each cycle (Total)
system.cpu1.fetch.rateDist::stdev            0.668991                       # Number of instructions fetched each cycle (Total)
system.cpu1.fetch.rateDist::underflows              0      0.00%      0.00% # Number of instructions fetched each cycle (Total)
system.cpu1.fetch.rateDist::0               608542944     86.26%     86.26% # Number of instructions fetched each cycle (Total)
system.cpu1.fetch.rateDist::1                54960252      7.79%     94.05% # Number of instructions fetched each cycle (Total)
system.cpu1.fetch.rateDist::2                25629176      3.63%     97.68% # Number of instructions fetched each cycle (Total)
system.cpu1.fetch.rateDist::3                10439421      1.48%     99.16% # Number of instructions fetched each cycle (Total)
system.cpu1.fetch.rateDist::4                 5259321      0.75%     99.91% # Number of instructions fetched each cycle (Total)
system.cpu1.fetch.rateDist::5                  596474      0.08%     99.99% # Number of instructions fetched each cycle (Total)
system.cpu1.fetch.rateDist::6                   65994      0.01%    100.00% # Number of instructions fetched each cycle (Total)
system.cpu1.fetch.rateDist::7                     168      0.00%    100.00% # Number of instructions fetched each cycle (Total)
system.cpu1.fetch.rateDist::8                     749      0.00%    100.00% # Number of instructions fetched each cycle (Total)
system.cpu1.fetch.rateDist::overflows               0      0.00%    100.00% # Number of instructions fetched each cycle (Total)
system.cpu1.fetch.rateDist::min_value               0                       # Number of instructions fetched each cycle (Total)
system.cpu1.fetch.rateDist::max_value               8                       # Number of instructions fetched each cycle (Total)
system.cpu1.fetch.rateDist::total           705494499                       # Number of instructions fetched each cycle (Total)
system.cpu1.fp_regfile_reads                       12                       # number of floating regfile reads
system.cpu1.idleCycles                         900160                       # Total number of cycles that the CPU has spent unscheduled due to idling
system.cpu1.iew.branchMispredicts             1518944                       # Number of branch mispredicts detected at execute
system.cpu1.iew.exec_branches                31720355                       # Number of branches executed
system.cpu1.iew.exec_nop                            0                       # number of nop insts executed
system.cpu1.iew.exec_rate                    0.205813                       # Inst execution rate
system.cpu1.iew.exec_refs                    52511060                       # number of memory reference insts executed
system.cpu1.iew.exec_stores                  12356773                       # Number of stores executed
system.cpu1.iew.exec_swp                            0                       # number of swp insts executed
system.cpu1.iew.iewBlockCycles              528265459                       # Number of cycles IEW is blocking
system.cpu1.iew.iewDispLoadInsts             40492003                       # Number of dispatched load instructions
system.cpu1.iew.iewDispNonSpecInsts           3802268                       # Number of dispatched non-speculative instructions
system.cpu1.iew.iewDispSquashedInsts          1203328                       # Number of squashed instructions skipped by dispatch
system.cpu1.iew.iewDispStoreInsts            12708866                       # Number of dispatched store instructions
system.cpu1.iew.iewDispatchedInsts          150358348                       # Number of instructions dispatched to IQ
system.cpu1.iew.iewExecLoadInsts             40154287                       # Number of load instructions executed
system.cpu1.iew.iewExecSquashedInsts          1494927                       # Number of squashed instructions skipped in execute
system.cpu1.iew.iewExecutedInsts            145385087                       # Number of executed instructions
system.cpu1.iew.iewIQFullEvents               2324317                       # Number of times the IQ has become full, causing a stall
system.cpu1.iew.iewIdleCycles                       0                       # Number of cycles IEW is idle
system.cpu1.iew.iewLSQFullEvents              4037734                       # Number of times the LSQ has become full, causing a stall
system.cpu1.iew.iewSquashCycles               1380221                       # Number of cycles IEW is squashing
system.cpu1.iew.iewUnblockCycles             11105568                       # Number of cycles IEW is unblocking
system.cpu1.iew.lsq.thread0.blockedLoads            0                       # Number of blocked loads due to partial load-store forwarding
system.cpu1.iew.lsq.thread0.cacheBlocked       120365                       # Number of times an access to memory failed due to the cache being blocked
system.cpu1.iew.lsq.thread0.forwLoads         1120561                       # Number of loads that had data forwarded from stores
system.cpu1.iew.lsq.thread0.ignoredResponses        35701                       # Number of memory responses ignored because the instruction is squashed
system.cpu1.iew.lsq.thread0.invAddrLoads            0                       # Number of loads ignored due to an invalid address
system.cpu1.iew.lsq.thread0.invAddrSwpfs            0                       # Number of software prefetches ignored due to an invalid address
system.cpu1.iew.lsq.thread0.memOrderViolation         2072                       # Number of memory ordering violations
system.cpu1.iew.lsq.thread0.rescheduledLoads         4864                       # Number of loads that were rescheduled
system.cpu1.iew.lsq.thread0.squashedLoads      3598688                       # Number of loads squashed
system.cpu1.iew.lsq.thread0.squashedStores       781614                       # Number of stores squashed
system.cpu1.iew.memOrderViolationEvents          2072                       # Number of memory order violations
system.cpu1.iew.predictedNotTakenIncorrect       521843                       # Number of branches that were predicted not taken incorrectly
system.cpu1.iew.predictedTakenIncorrect        997101                       # Number of branches that were predicted taken incorrectly
system.cpu1.iew.wb_consumers                 84593628                       # num instructions consuming a value
system.cpu1.iew.wb_count                    143962052                       # cumulative count of insts written-back
system.cpu1.iew.wb_fanout                    0.846220                       # average fanout of values written-back
system.cpu1.iew.wb_producers                 71584779                       # num instructions producing a value
system.cpu1.iew.wb_rate                      0.203798                       # insts written-back per cycle
system.cpu1.iew.wb_sent                     144000408                       # cumulative count of insts sent to commit
system.cpu1.int_regfile_reads               180653002                       # number of integer regfile reads
system.cpu1.int_regfile_writes               96897733                       # number of integer regfile writes
system.cpu1.ipc                              0.184158                       # IPC: Instructions Per Cycle
system.cpu1.ipc_total                        0.184158                       # IPC: Total IPC of All Threads
system.cpu1.iq.FU_type_0::No_OpClass          7603393      5.18%      5.18% # Type of FU issued
system.cpu1.iq.FU_type_0::IntAlu             86317486     58.77%     63.94% # Type of FU issued
system.cpu1.iq.FU_type_0::IntMult                  47      0.00%     63.94% # Type of FU issued
system.cpu1.iq.FU_type_0::IntDiv                   88      0.00%     63.94% # Type of FU issued
system.cpu1.iq.FU_type_0::FloatAdd                  0      0.00%     63.94% # Type of FU issued
system.cpu1.iq.FU_type_0::FloatCmp                  0      0.00%     63.94% # Type of FU issued
system.cpu1.iq.FU_type_0::FloatCvt                  0      0.00%     63.94% # Type of FU issued
system.cpu1.iq.FU_type_0::FloatMult                 0      0.00%     63.94% # Type of FU issued
system.cpu1.iq.FU_type_0::FloatMultAcc              0      0.00%     63.94% # Type of FU issued
system.cpu1.iq.FU_type_0::FloatDiv                  0      0.00%     63.94% # Type of FU issued
system.cpu1.iq.FU_type_0::FloatMisc                 0      0.00%     63.94% # Type of FU issued
system.cpu1.iq.FU_type_0::FloatSqrt                 0      0.00%     63.94% # Type of FU issued
system.cpu1.iq.FU_type_0::SimdAdd                   0      0.00%     63.94% # Type of FU issued
system.cpu1.iq.FU_type_0::SimdAddAcc                0      0.00%     63.94% # Type of FU issued
system.cpu1.iq.FU_type_0::SimdAlu                   0      0.00%     63.94% # Type of FU issued
system.cpu1.iq.FU_type_0::SimdCmp                   0      0.00%     63.94% # Type of FU issued
system.cpu1.iq.FU_type_0::SimdCvt                   0      0.00%     63.94% # Type of FU issued
system.cpu1.iq.FU_type_0::SimdMisc                  0      0.00%     63.94% # Type of FU issued
system.cpu1.iq.FU_type_0::SimdMult                  0      0.00%     63.94% # Type of FU issued
system.cpu1.iq.FU_type_0::SimdMultAcc               0      0.00%     63.94% # Type of FU issued
system.cpu1.iq.FU_type_0::SimdShift                 0      0.00%     63.94% # Type of FU issued
system.cpu1.iq.FU_type_0::SimdShiftAcc              0      0.00%     63.94% # Type of FU issued
system.cpu1.iq.FU_type_0::SimdDiv                   0      0.00%     63.94% # Type of FU issued
system.cpu1.iq.FU_type_0::SimdSqrt                  0      0.00%     63.94% # Type of FU issued
system.cpu1.iq.FU_type_0::SimdFloatAdd              0      0.00%     63.94% # Type of FU issued
system.cpu1.iq.FU_type_0::SimdFloatAlu              0      0.00%     63.94% # Type of FU issued
system.cpu1.iq.FU_type_0::SimdFloatCmp              0      0.00%     63.94% # Type of FU issued
system.cpu1.iq.FU_type_0::SimdFloatCvt              0      0.00%     63.94% # Type of FU issued
system.cpu1.iq.FU_type_0::SimdFloatDiv              0      0.00%     63.94% # Type of FU issued
system.cpu1.iq.FU_type_0::SimdFloatMisc             0      0.00%     63.94% # Type of FU issued
system.cpu1.iq.FU_type_0::SimdFloatMult             0      0.00%     63.94% # Type of FU issued
system.cpu1.iq.FU_type_0::SimdFloatMultAcc            0      0.00%     63.94% # Type of FU issued
system.cpu1.iq.FU_type_0::SimdFloatSqrt             0      0.00%     63.94% # Type of FU issued
system.cpu1.iq.FU_type_0::SimdReduceAdd             0      0.00%     63.94% # Type of FU issued
system.cpu1.iq.FU_type_0::SimdReduceAlu             0      0.00%     63.94% # Type of FU issued
system.cpu1.iq.FU_type_0::SimdReduceCmp             0      0.00%     63.94% # Type of FU issued
system.cpu1.iq.FU_type_0::SimdFloatReduceAdd            0      0.00%     63.94% # Type of FU issued
system.cpu1.iq.FU_type_0::SimdFloatReduceCmp            0      0.00%     63.94% # Type of FU issued
system.cpu1.iq.FU_type_0::SimdAes                   0      0.00%     63.94% # Type of FU issued
system.cpu1.iq.FU_type_0::SimdAesMix                0      0.00%     63.94% # Type of FU issued
system.cpu1.iq.FU_type_0::SimdSha1Hash              0      0.00%     63.94% # Type of FU issued
system.cpu1.iq.FU_type_0::SimdSha1Hash2             0      0.00%     63.94% # Type of FU issued
system.cpu1.iq.FU_type_0::SimdSha256Hash            0      0.00%     63.94% # Type of FU issued
system.cpu1.iq.FU_type_0::SimdSha256Hash2            0      0.00%     63.94% # Type of FU issued
system.cpu1.iq.FU_type_0::SimdShaSigma2             0      0.00%     63.94% # Type of FU issued
system.cpu1.iq.FU_type_0::SimdShaSigma3             0      0.00%     63.94% # Type of FU issued
system.cpu1.iq.FU_type_0::SimdPredAlu               0      0.00%     63.94% # Type of FU issued
system.cpu1.iq.FU_type_0::MemRead            44348330     30.19%     94.14% # Type of FU issued
system.cpu1.iq.FU_type_0::MemWrite            8610658      5.86%    100.00% # Type of FU issued
system.cpu1.iq.FU_type_0::FloatMemRead              0      0.00%    100.00% # Type of FU issued
system.cpu1.iq.FU_type_0::FloatMemWrite            12      0.00%    100.00% # Type of FU issued
system.cpu1.iq.FU_type_0::IprAccess                 0      0.00%    100.00% # Type of FU issued
system.cpu1.iq.FU_type_0::InstPrefetch              0      0.00%    100.00% # Type of FU issued
system.cpu1.iq.FU_type_0::total             146880014                       # Type of FU issued
system.cpu1.iq.fp_alu_accesses                     14                       # Number of floating point alu accesses
system.cpu1.iq.fp_inst_queue_reads                 26                       # Number of floating instruction queue reads
system.cpu1.iq.fp_inst_queue_wakeup_accesses           12                       # Number of floating instruction queue wakeup accesses
system.cpu1.iq.fp_inst_queue_writes                12                       # Number of floating instruction queue writes
system.cpu1.iq.fu_busy_cnt                    4435316                       # FU busy when requested
system.cpu1.iq.fu_busy_rate                  0.030197                       # FU busy rate (busy events/executed inst)
system.cpu1.iq.fu_full::No_OpClass                  0      0.00%      0.00% # attempts to use FU when none available
system.cpu1.iq.fu_full::IntAlu                 886713     19.99%     19.99% # attempts to use FU when none available
system.cpu1.iq.fu_full::IntMult                     0      0.00%     19.99% # attempts to use FU when none available
system.cpu1.iq.fu_full::IntDiv                      0      0.00%     19.99% # attempts to use FU when none available
system.cpu1.iq.fu_full::FloatAdd                    0      0.00%     19.99% # attempts to use FU when none available
system.cpu1.iq.fu_full::FloatCmp                    0      0.00%     19.99% # attempts to use FU when none available
system.cpu1.iq.fu_full::FloatCvt                    0      0.00%     19.99% # attempts to use FU when none available
system.cpu1.iq.fu_full::FloatMult                   0      0.00%     19.99% # attempts to use FU when none available
system.cpu1.iq.fu_full::FloatMultAcc                0      0.00%     19.99% # attempts to use FU when none available
system.cpu1.iq.fu_full::FloatDiv                    0      0.00%     19.99% # attempts to use FU when none available
system.cpu1.iq.fu_full::FloatMisc                   0      0.00%     19.99% # attempts to use FU when none available
system.cpu1.iq.fu_full::FloatSqrt                   0      0.00%     19.99% # attempts to use FU when none available
system.cpu1.iq.fu_full::SimdAdd                     0      0.00%     19.99% # attempts to use FU when none available
system.cpu1.iq.fu_full::SimdAddAcc                  0      0.00%     19.99% # attempts to use FU when none available
system.cpu1.iq.fu_full::SimdAlu                     0      0.00%     19.99% # attempts to use FU when none available
system.cpu1.iq.fu_full::SimdCmp                     0      0.00%     19.99% # attempts to use FU when none available
system.cpu1.iq.fu_full::SimdCvt                     0      0.00%     19.99% # attempts to use FU when none available
system.cpu1.iq.fu_full::SimdMisc                    0      0.00%     19.99% # attempts to use FU when none available
system.cpu1.iq.fu_full::SimdMult                    0      0.00%     19.99% # attempts to use FU when none available
system.cpu1.iq.fu_full::SimdMultAcc                 0      0.00%     19.99% # attempts to use FU when none available
system.cpu1.iq.fu_full::SimdShift                   0      0.00%     19.99% # attempts to use FU when none available
system.cpu1.iq.fu_full::SimdShiftAcc                0      0.00%     19.99% # attempts to use FU when none available
system.cpu1.iq.fu_full::SimdDiv                     0      0.00%     19.99% # attempts to use FU when none available
system.cpu1.iq.fu_full::SimdSqrt                    0      0.00%     19.99% # attempts to use FU when none available
system.cpu1.iq.fu_full::SimdFloatAdd                0      0.00%     19.99% # attempts to use FU when none available
system.cpu1.iq.fu_full::SimdFloatAlu                0      0.00%     19.99% # attempts to use FU when none available
system.cpu1.iq.fu_full::SimdFloatCmp                0      0.00%     19.99% # attempts to use FU when none available
system.cpu1.iq.fu_full::SimdFloatCvt                0      0.00%     19.99% # attempts to use FU when none available
system.cpu1.iq.fu_full::SimdFloatDiv                0      0.00%     19.99% # attempts to use FU when none available
system.cpu1.iq.fu_full::SimdFloatMisc               0      0.00%     19.99% # attempts to use FU when none available
system.cpu1.iq.fu_full::SimdFloatMult               0      0.00%     19.99% # attempts to use FU when none available
system.cpu1.iq.fu_full::SimdFloatMultAcc            0      0.00%     19.99% # attempts to use FU when none available
system.cpu1.iq.fu_full::SimdFloatSqrt               0      0.00%     19.99% # attempts to use FU when none available
system.cpu1.iq.fu_full::SimdReduceAdd               0      0.00%     19.99% # attempts to use FU when none available
system.cpu1.iq.fu_full::SimdReduceAlu               0      0.00%     19.99% # attempts to use FU when none available
system.cpu1.iq.fu_full::SimdReduceCmp               0      0.00%     19.99% # attempts to use FU when none available
system.cpu1.iq.fu_full::SimdFloatReduceAdd            0      0.00%     19.99% # attempts to use FU when none available
system.cpu1.iq.fu_full::SimdFloatReduceCmp            0      0.00%     19.99% # attempts to use FU when none available
system.cpu1.iq.fu_full::SimdAes                     0      0.00%     19.99% # attempts to use FU when none available
system.cpu1.iq.fu_full::SimdAesMix                  0      0.00%     19.99% # attempts to use FU when none available
system.cpu1.iq.fu_full::SimdSha1Hash                0      0.00%     19.99% # attempts to use FU when none available
system.cpu1.iq.fu_full::SimdSha1Hash2               0      0.00%     19.99% # attempts to use FU when none available
system.cpu1.iq.fu_full::SimdSha256Hash              0      0.00%     19.99% # attempts to use FU when none available
system.cpu1.iq.fu_full::SimdSha256Hash2             0      0.00%     19.99% # attempts to use FU when none available
system.cpu1.iq.fu_full::SimdShaSigma2               0      0.00%     19.99% # attempts to use FU when none available
system.cpu1.iq.fu_full::SimdShaSigma3               0      0.00%     19.99% # attempts to use FU when none available
system.cpu1.iq.fu_full::SimdPredAlu                 0      0.00%     19.99% # attempts to use FU when none available
system.cpu1.iq.fu_full::MemRead               3121482     70.38%     90.37% # attempts to use FU when none available
system.cpu1.iq.fu_full::MemWrite               427119      9.63%    100.00% # attempts to use FU when none available
[...]
system.cpu1.dcache.ReadReq_accesses::.cpu1.data     76912879                       # number of ReadReq accesses(hits+misses)
system.cpu1.dcache.ReadReq_accesses::total     76912879                       # number of ReadReq accesses(hits+misses)
system.cpu1.dcache.ReadReq_miss_rate::.cpu1.data     0.233988                       # miss rate for ReadReq accesses
system.cpu1.dcache.ReadReq_miss_rate::total     0.233988                       # miss rate for ReadReq accesses
system.cpu1.dcache.ReadReq_avg_miss_latency::.cpu1.data 73526.823383                       # average ReadReq miss latency
system.cpu1.dcache.ReadReq_avg_miss_latency::total 73526.823383                       # average ReadReq miss latency
system.cpu1.dcache.ReadReq_mshr_hits::.cpu1.data      9915753                       # number of ReadReq MSHR hits
system.cpu1.dcache.ReadReq_mshr_hits::total      9915753                       # number of ReadReq MSHR hits
system.cpu1.dcache.ReadReq_mshr_misses::.cpu1.data      8080914                       # number of ReadReq MSHR misses
system.cpu1.dcache.ReadReq_mshr_misses::total      8080914                       # number of ReadReq MSHR misses
system.cpu1.dcache.ReadReq_mshr_miss_latency::.cpu1.data 735022405500                       # number of ReadReq MSHR miss cycles
system.cpu1.dcache.ReadReq_mshr_miss_latency::total 735022405500                       # number of ReadReq MSHR miss cycles
system.cpu1.dcache.ReadReq_mshr_miss_rate::.cpu1.data     0.105066                       # mshr miss rate for ReadReq accesses
system.cpu1.dcache.ReadReq_mshr_miss_rate::total     0.105066                       # mshr miss rate for ReadReq accesses
system.cpu1.dcache.ReadReq_avg_mshr_miss_latency::.cpu1.data 90957.830451                       # average ReadReq mshr miss latency
system.cpu1.dcache.ReadReq_avg_mshr_miss_latency::total 90957.830451                       # average ReadReq mshr miss latency
system.cpu1.dcache.WriteReq_hits::.cpu1.data      2190026                       # number of WriteReq hits
system.cpu1.dcache.WriteReq_hits::total       2190026                       # number of WriteReq hits
system.cpu1.dcache.WriteReq_misses::.cpu1.data      1529197                       # number of WriteReq misses
system.cpu1.dcache.WriteReq_misses::total      1529197                       # number of WriteReq misses
system.cpu1.dcache.WriteReq_miss_latency::.cpu1.data 136975260747                       # number of WriteReq miss cycles
system.cpu1.dcache.WriteReq_miss_latency::total 136975260747                       # number of WriteReq miss cycles
system.cpu1.dcache.WriteReq_accesses::.cpu1.data      3719223                       # number of WriteReq accesses(hits+misses)
system.cpu1.dcache.WriteReq_accesses::total      3719223                       # number of WriteReq accesses(hits+misses)
system.cpu1.dcache.WriteReq_miss_rate::.cpu1.data     0.411160                       # miss rate for WriteReq accesses
system.cpu1.dcache.WriteReq_miss_rate::total     0.411160                       # miss rate for WriteReq accesses
system.cpu1.dcache.WriteReq_avg_miss_latency::.cpu1.data 89573.325573                       # average WriteReq miss latency
system.cpu1.dcache.WriteReq_avg_miss_latency::total 89573.325573                       # average WriteReq miss latency
system.cpu1.dcache.WriteReq_mshr_hits::.cpu1.data      1422935                       # number of WriteReq MSHR hits
system.cpu1.dcache.WriteReq_mshr_hits::total      1422935                       # number of WriteReq MSHR hits
system.cpu1.dcache.WriteReq_mshr_misses::.cpu1.data       106262                       # number of WriteReq MSHR misses
system.cpu1.dcache.WriteReq_mshr_misses::total       106262                       # number of WriteReq MSHR misses
system.cpu1.dcache.WriteReq_mshr_miss_latency::.cpu1.data  12051052840                       # number of WriteReq MSHR miss cycles
system.cpu1.dcache.WriteReq_mshr_miss_latency::total  12051052840                       # number of WriteReq MSHR miss cycles
system.cpu1.dcache.WriteReq_mshr_miss_rate::.cpu1.data     0.028571                       # mshr miss rate for WriteReq accesses
system.cpu1.dcache.WriteReq_mshr_miss_rate::total     0.028571                       # mshr miss rate for WriteReq accesses
system.cpu1.dcache.WriteReq_avg_mshr_miss_latency::.cpu1.data 113408.865258                       # average WriteReq mshr miss latency
system.cpu1.dcache.WriteReq_avg_mshr_miss_latency::total 113408.865258                       # average WriteReq mshr miss latency
system.cpu1.dcache.LoadLockedReq_hits::.cpu1.data          729                       # number of LoadLockedReq hits
system.cpu1.dcache.LoadLockedReq_hits::total          729                       # number of LoadLockedReq hits
system.cpu1.dcache.LoadLockedReq_misses::.cpu1.data          148                       # number of LoadLockedReq misses
system.cpu1.dcache.LoadLockedReq_misses::total          148                       # number of LoadLockedReq misses
system.cpu1.dcache.LoadLockedReq_miss_latency::.cpu1.data     11793000                       # number of LoadLockedReq miss cycles
system.cpu1.dcache.LoadLockedReq_miss_latency::total     11793000                       # number of LoadLockedReq miss cycles
system.cpu1.dcache.LoadLockedReq_accesses::.cpu1.data          877                       # number of LoadLockedReq accesses(hits+misses)
system.cpu1.dcache.LoadLockedReq_accesses::total          877                       # number of LoadLockedReq accesses(hits+misses)
system.cpu1.dcache.LoadLockedReq_miss_rate::.cpu1.data     0.168757                       # miss rate for LoadLockedReq accesses
system.cpu1.dcache.LoadLockedReq_miss_rate::total     0.168757                       # miss rate for LoadLockedReq accesses
system.cpu1.dcache.LoadLockedReq_avg_miss_latency::.cpu1.data 79682.432432                       # average LoadLockedReq miss latency
system.cpu1.dcache.LoadLockedReq_avg_miss_latency::total 79682.432432                       # average LoadLockedReq miss latency
system.cpu1.dcache.LoadLockedReq_mshr_hits::.cpu1.data           65                       # number of LoadLockedReq MSHR hits
system.cpu1.dcache.LoadLockedReq_mshr_hits::total           65                       # number of LoadLockedReq MSHR hits
system.cpu1.dcache.LoadLockedReq_mshr_misses::.cpu1.data           83                       # number of LoadLockedReq MSHR misses
system.cpu1.dcache.LoadLockedReq_mshr_misses::total           83                       # number of LoadLockedReq MSHR misses
system.cpu1.dcache.LoadLockedReq_mshr_miss_latency::.cpu1.data      6625500                       # number of LoadLockedReq MSHR miss cycles
system.cpu1.dcache.LoadLockedReq_mshr_miss_latency::total      6625500                       # number of LoadLockedReq MSHR miss cycles
system.cpu1.dcache.LoadLockedReq_mshr_miss_rate::.cpu1.data     0.094641                       # mshr miss rate for LoadLockedReq accesses
system.cpu1.dcache.LoadLockedReq_mshr_miss_rate::total     0.094641                       # mshr miss rate for LoadLockedReq accesses
system.cpu1.dcache.LoadLockedReq_avg_mshr_miss_latency::.cpu1.data 79825.301205                       # average LoadLockedReq mshr miss latency
system.cpu1.dcache.LoadLockedReq_avg_mshr_miss_latency::total 79825.301205                       # average LoadLockedReq mshr miss latency
system.cpu1.dcache.StoreCondReq_hits::.cpu1.data          607                       # number of StoreCondReq hits
system.cpu1.dcache.StoreCondReq_hits::total          607                       # number of StoreCondReq hits
system.cpu1.dcache.StoreCondReq_misses::.cpu1.data          193                       # number of StoreCondReq misses
system.cpu1.dcache.StoreCondReq_misses::total          193                       # number of StoreCondReq misses
system.cpu1.dcache.StoreCondReq_miss_latency::.cpu1.data       980000                       # number of StoreCondReq miss cycles
system.cpu1.dcache.StoreCondReq_miss_latency::total       980000                       # number of StoreCondReq miss cycles
system.cpu1.dcache.StoreCondReq_accesses::.cpu1.data          800                       # number of StoreCondReq accesses(hits+misses)
system.cpu1.dcache.StoreCondReq_accesses::total          800                       # number of StoreCondReq accesses(hits+misses)
system.cpu1.dcache.StoreCondReq_miss_rate::.cpu1.data     0.241250                       # miss rate for StoreCondReq accesses
system.cpu1.dcache.StoreCondReq_miss_rate::total     0.241250                       # miss rate for StoreCondReq accesses
system.cpu1.dcache.StoreCondReq_avg_miss_latency::.cpu1.data  5077.720207                       # average StoreCondReq miss latency
system.cpu1.dcache.StoreCondReq_avg_miss_latency::total  5077.720207                       # average StoreCondReq miss latency
system.cpu1.dcache.StoreCondReq_mshr_misses::.cpu1.data          193                       # number of StoreCondReq MSHR misses
system.cpu1.dcache.StoreCondReq_mshr_misses::total          193                       # number of StoreCondReq MSHR misses
system.cpu1.dcache.StoreCondReq_mshr_miss_latency::.cpu1.data       787000                       # number of StoreCondReq MSHR miss cycles
system.cpu1.dcache.StoreCondReq_mshr_miss_latency::total       787000                       # number of StoreCondReq MSHR miss cycles
system.cpu1.dcache.StoreCondReq_mshr_miss_rate::.cpu1.data     0.241250                       # mshr miss rate for StoreCondReq accesses
system.cpu1.dcache.StoreCondReq_mshr_miss_rate::total     0.241250                       # mshr miss rate for StoreCondReq accesses
system.cpu1.dcache.StoreCondReq_avg_mshr_miss_latency::.cpu1.data  4077.720207                       # average StoreCondReq mshr miss latency
system.cpu1.dcache.StoreCondReq_avg_mshr_miss_latency::total  4077.720207                       # average StoreCondReq mshr miss latency
system.cpu1.dcache.SwapReq_hits::.cpu1.data          309                       # number of SwapReq hits
system.cpu1.dcache.SwapReq_hits::total            309                       # number of SwapReq hits
system.cpu1.dcache.SwapReq_misses::.cpu1.data          151                       # number of SwapReq misses
system.cpu1.dcache.SwapReq_misses::total          151                       # number of SwapReq misses
system.cpu1.dcache.SwapReq_miss_latency::.cpu1.data       681500                       # number of SwapReq miss cycles
system.cpu1.dcache.SwapReq_miss_latency::total       681500                       # number of SwapReq miss cycles
system.cpu1.dcache.SwapReq_accesses::.cpu1.data          460                       # number of SwapReq accesses(hits+misses)
system.cpu1.dcache.SwapReq_accesses::total          460                       # number of SwapReq accesses(hits+misses)
system.cpu1.dcache.SwapReq_miss_rate::.cpu1.data     0.328261                       # miss rate for SwapReq accesses
system.cpu1.dcache.SwapReq_miss_rate::total     0.328261                       # miss rate for SwapReq accesses
system.cpu1.dcache.SwapReq_avg_miss_latency::.cpu1.data  4513.245033                       # average SwapReq miss latency
system.cpu1.dcache.SwapReq_avg_miss_latency::total  4513.245033                       # average SwapReq miss latency
system.cpu1.dcache.SwapReq_mshr_misses::.cpu1.data          151                       # number of SwapReq MSHR misses
system.cpu1.dcache.SwapReq_mshr_misses::total          151                       # number of SwapReq MSHR misses
system.cpu1.dcache.SwapReq_mshr_miss_latency::.cpu1.data       530500                       # number of SwapReq MSHR miss cycles
system.cpu1.dcache.SwapReq_mshr_miss_latency::total       530500                       # number of SwapReq MSHR miss cycles
system.cpu1.dcache.SwapReq_mshr_miss_rate::.cpu1.data     0.328261                       # mshr miss rate for SwapReq accesses
system.cpu1.dcache.SwapReq_mshr_miss_rate::total     0.328261                       # mshr miss rate for SwapReq accesses
system.cpu1.dcache.SwapReq_avg_mshr_miss_latency::.cpu1.data  3513.245033                       # average SwapReq mshr miss latency
system.cpu1.dcache.SwapReq_avg_mshr_miss_latency::total  3513.245033                       # average SwapReq mshr miss latency
system.cpu1.dcache.tags.pwrStateResidencyTicks::UNDEFINED 1039566288000                       # Cumulative time (in ticks) in various power states
system.cpu1.dcache.tags.tagsinuse           31.995887                       # Cycle average of tags in use
system.cpu1.dcache.tags.total_refs           69297947                       # Total number of references to valid blocks.
system.cpu1.dcache.tags.sampled_refs          8187102                       # Sample count of references to valid blocks.
system.cpu1.dcache.tags.avg_refs             8.464283                       # Average number of references to valid blocks.
system.cpu1.dcache.tags.warmup_cycle                0                       # Cycle when the warmup percentage was hit.
system.cpu1.dcache.tags.occ_blocks::.cpu1.data    31.995887                       # Average occupied blocks per requestor
system.cpu1.dcache.tags.occ_percent::.cpu1.data     0.999871                       # Average percentage of cache occupancy
system.cpu1.dcache.tags.occ_percent::total     0.999871                       # Average percentage of cache occupancy
system.cpu1.dcache.tags.occ_task_id_blocks::1024           29                       # Occupied blocks per task id
system.cpu1.dcache.tags.age_task_id_blocks_1024::1           29                       # Occupied blocks per task id
system.cpu1.dcache.tags.occ_task_id_percent::1024     0.906250                       # Percentage of cache occupancy per task id
system.cpu1.dcache.tags.tag_accesses        169455554                       # Number of tag accesses
system.cpu1.dcache.tags.data_accesses       169455554                       # Number of data accesses
system.cpu_clk_domain.clock                       500                       # Clock period in ticks
system.tol2bus.pwrStateResidencyTicks::UNDEFINED 1039566288000                       # Cumulative time (in ticks) in various power states
system.tol2bus.trans_dist::ReadResp          47832824                       # Transaction distribution
system.tol2bus.trans_dist::WritebackDirty      2477798                       # Transaction distribution
system.tol2bus.trans_dist::WritebackClean     46716757                       # Transaction distribution
system.tol2bus.trans_dist::CleanEvict        66014480                       # Transaction distribution
system.tol2bus.trans_dist::UpgradeReq            1414                       # Transaction distribution
system.tol2bus.trans_dist::SCUpgradeReq           437                       # Transaction distribution
system.tol2bus.trans_dist::UpgradeResp           1851                       # Transaction distribution
system.tol2bus.trans_dist::ReadExReq           211165                       # Transaction distribution
system.tol2bus.trans_dist::ReadExResp          211165                       # Transaction distribution
system.tol2bus.trans_dist::ReadCleanReq         17867                       # Transaction distribution
system.tol2bus.trans_dist::ReadSharedReq     47814958                       # Transaction distribution
system.tol2bus.pkt_count_system.cpu0.icache.mem_side::system.l2.cpu_side        45766                       # Packet count per connected master and slave (bytes)
system.tol2bus.pkt_count_system.cpu0.dcache.mem_side::system.l2.cpu_side    119517217                       # Packet count per connected master and slave (bytes)
system.tol2bus.pkt_count_system.cpu1.icache.mem_side::system.l2.cpu_side         7833                       # Packet count per connected master and slave (bytes)
system.tol2bus.pkt_count_system.cpu1.dcache.mem_side::system.l2.cpu_side     24558607                       # Packet count per connected master and slave (bytes)
system.tol2bus.pkt_count::total             144129423                       # Packet count per connected master and slave (bytes)
system.tol2bus.pkt_size_system.cpu0.icache.mem_side::system.l2.cpu_side      1952640                       # Cumulative packet size per connected master and slave (bytes)
system.tol2bus.pkt_size_system.cpu0.dcache.mem_side::system.l2.cpu_side   5099286784                       # Cumulative packet size per connected master and slave (bytes)
system.tol2bus.pkt_size_system.cpu1.icache.mem_side::system.l2.cpu_side       334208                       # Cumulative packet size per connected master and slave (bytes)
system.tol2bus.pkt_size_system.cpu1.dcache.mem_side::system.l2.cpu_side   1047741568                       # Cumulative packet size per connected master and slave (bytes)
system.tol2bus.pkt_size::total             6149315200                       # Cumulative packet size per connected master and slave (bytes)
system.tol2bus.snoops                        67171293                       # Total snoops (count)
system.tol2bus.snoopTraffic                  73951616                       # Total snoop traffic (bytes)
system.tol2bus.snoop_fanout::samples        115213020                       # Request fanout histogram
system.tol2bus.snoop_fanout::mean            0.231664                       # Request fanout histogram
system.tol2bus.snoop_fanout::stdev           0.430367                       # Request fanout histogram
system.tol2bus.snoop_fanout::underflows             0      0.00%      0.00% # Request fanout histogram
system.tol2bus.snoop_fanout::0               88938153     77.19%     77.19% # Request fanout histogram
system.tol2bus.snoop_fanout::1               25858970     22.44%     99.64% # Request fanout histogram
system.tol2bus.snoop_fanout::2                 415897      0.36%    100.00% # Request fanout histogram
system.tol2bus.snoop_fanout::3                      0      0.00%    100.00% # Request fanout histogram
system.tol2bus.snoop_fanout::4                      0      0.00%    100.00% # Request fanout histogram
system.tol2bus.snoop_fanout::5                      0      0.00%    100.00% # Request fanout histogram
system.tol2bus.snoop_fanout::6                      0      0.00%    100.00% # Request fanout histogram
system.tol2bus.snoop_fanout::7                      0      0.00%    100.00% # Request fanout histogram
system.tol2bus.snoop_fanout::8                      0      0.00%    100.00% # Request fanout histogram
system.tol2bus.snoop_fanout::overflows              0      0.00%    100.00% # Request fanout histogram
system.tol2bus.snoop_fanout::min_value              0                       # Request fanout histogram
system.tol2bus.snoop_fanout::max_value              2                       # Request fanout histogram
system.tol2bus.snoop_fanout::total          115213020                       # Request fanout histogram
system.tol2bus.reqLayer0.occupancy        96085707993                       # Layer occupancy (ticks)
system.tol2bus.reqLayer0.utilization              9.2                       # Layer utilization (%)
system.tol2bus.respLayer1.occupancy       59770527367                       # Layer occupancy (ticks)
system.tol2bus.respLayer1.utilization             5.7                       # Layer utilization (%)
system.tol2bus.respLayer0.occupancy          22904955                       # Layer occupancy (ticks)
system.tol2bus.respLayer0.utilization             0.0                       # Layer utilization (%)
system.tol2bus.respLayer3.occupancy       12284647944                       # Layer occupancy (ticks)
system.tol2bus.respLayer3.utilization             1.2                       # Layer utilization (%)
system.tol2bus.respLayer2.occupancy           3923985                       # Layer occupancy (ticks)
system.tol2bus.respLayer2.utilization             0.0                       # Layer utilization (%)

---------- End Simulation Statistics   ----------
