
---------- Begin Simulation Statistics ----------
final_tick                               715413186000                       # Number of ticks from beginning of simulation (restored from checkpoints and never reset)
host_inst_rate                                  75322                       # Simulator instruction rate (inst/s)
host_mem_usage                                 701644                       # Number of bytes of host memory used
host_op_rate                                    75548                       # Simulator op (including micro ops) rate (op/s)
host_seconds                                  9041.24                       # Real time elapsed on the host
host_tick_rate                               79127753                       # Simulator tick rate (ticks/s)
sim_freq                                 1000000000000                       # Frequency of simulated ticks
sim_insts                                   681006104                       # Number of instructions simulated
sim_ops                                     683043710                       # Number of ops (including micro ops) simulated
sim_seconds                                  0.715413                       # Number of seconds simulated
sim_ticks                                715413186000                       # Number of ticks simulated
system.cpu0.branchPred.BTBCorrect                   0                       # Number of correct BTB predictions (this stat may not work properly.
system.cpu0.branchPred.BTBHitPct            86.165048                       # BTB Hit Percentage
system.cpu0.branchPred.BTBHits               86524579                       # Number of BTB hits
system.cpu0.branchPred.BTBLookups           100417258                       # Number of BTB lookups
system.cpu0.branchPred.RASInCorrect                 0                       # Number of incorrect RAS predictions.
system.cpu0.branchPred.condIncorrect         12871313                       # Number of conditional branches incorrect
system.cpu0.branchPred.condPredicted        131816334                       # Number of conditional branches predicted
system.cpu0.branchPred.indirectHits          12659377                       # Number of indirect target hits.
system.cpu0.branchPred.indirectLookups       12780489                       # Number of indirect predictor lookups.
system.cpu0.branchPred.indirectMisses          121112                       # Number of indirect misses.
system.cpu0.branchPred.lookups              168034041                       # Number of BP lookups
system.cpu0.branchPred.usedRAS                      0                       # Number of times the RAS was used to get a target.
system.cpu0.branchPredindirectMispredicted      1082929                       # Number of mispredicted indirect branches.
system.cpu0.commit.amos                       1018210                       # Number of atomic instructions committed
system.cpu0.commit.branchMispredicts          7630378                       # The number of times a branch was mispredicted
system.cpu0.commit.branches                 151194551                       # Number of branches committed
system.cpu0.commit.bw_lim_events             20632188                       # number cycles where commit BW limit reached
system.cpu0.commit.commitNonSpecStalls        3058509                       # The number of times commit has been forced to stall to communicate backwards
system.cpu0.commit.commitSquashedInsts       64335926                       # The number of squashed insts skipped by commit
system.cpu0.commit.committedInsts           623614687                       # Number of instructions committed
system.cpu0.commit.committedOps             624634185                       # Number of ops (including micro ops) committed
system.cpu0.commit.committed_per_cycle::samples   1153906315                       # Number of insts commited each cycle
system.cpu0.commit.committed_per_cycle::mean     0.541321                       # Number of insts commited each cycle
system.cpu0.commit.committed_per_cycle::stdev     1.356079                       # Number of insts commited each cycle
system.cpu0.commit.committed_per_cycle::underflows            0      0.00%      0.00% # Number of insts commited each cycle
system.cpu0.commit.committed_per_cycle::0    865656424     75.02%     75.02% # Number of insts commited each cycle
system.cpu0.commit.committed_per_cycle::1    168199025     14.58%     89.60% # Number of insts commited each cycle
system.cpu0.commit.committed_per_cycle::2     43533125      3.77%     93.37% # Number of insts commited each cycle
system.cpu0.commit.committed_per_cycle::3     32243326      2.79%     96.16% # Number of insts commited each cycle
system.cpu0.commit.committed_per_cycle::4     15225431      1.32%     97.48% # Number of insts commited each cycle
system.cpu0.commit.committed_per_cycle::5      5092091      0.44%     97.92% # Number of insts commited each cycle
system.cpu0.commit.committed_per_cycle::6      2053686      0.18%     98.10% # Number of insts commited each cycle
system.cpu0.commit.committed_per_cycle::7      1271019      0.11%     98.21% # Number of insts commited each cycle
system.cpu0.commit.committed_per_cycle::8     20632188      1.79%    100.00% # Number of insts commited each cycle
system.cpu0.commit.committed_per_cycle::overflows            0      0.00%    100.00% # Number of insts commited each cycle
system.cpu0.commit.committed_per_cycle::min_value            0                       # Number of insts commited each cycle
system.cpu0.commit.committed_per_cycle::max_value            8                       # Number of insts commited each cycle
system.cpu0.commit.committed_per_cycle::total   1153906315                       # Number of insts commited each cycle
system.cpu0.commit.fp_insts                        50                       # Number of committed floating point instructions.
system.cpu0.commit.function_calls            13130178                       # Number of function calls committed.
system.cpu0.commit.int_insts                604930318                       # Number of committed integer instructions.
system.cpu0.commit.loads                    190144486                       # Number of loads committed
system.cpu0.commit.membars                    2037600                       # Number of memory barriers committed
system.cpu0.commit.op_class_0::No_OpClass      2037606      0.33%      0.33% # Class of committed instruction
system.cpu0.commit.op_class_0::IntAlu       347100307     55.57%     55.89% # Class of committed instruction
system.cpu0.commit.op_class_0::IntMult        4400507      0.70%     56.60% # Class of committed instruction
system.cpu0.commit.op_class_0::IntDiv         1542070      0.25%     56.85% # Class of committed instruction
system.cpu0.commit.op_class_0::FloatAdd             0      0.00%     56.85% # Class of committed instruction
system.cpu0.commit.op_class_0::FloatCmp             4      0.00%     56.85% # Class of committed instruction
system.cpu0.commit.op_class_0::FloatCvt            12      0.00%     56.85% # Class of committed instruction
system.cpu0.commit.op_class_0::FloatMult            0      0.00%     56.85% # Class of committed instruction
system.cpu0.commit.op_class_0::FloatMultAcc            0      0.00%     56.85% # Class of committed instruction
system.cpu0.commit.op_class_0::FloatDiv             2      0.00%     56.85% # Class of committed instruction
system.cpu0.commit.op_class_0::FloatMisc            4      0.00%     56.85% # Class of committed instruction
system.cpu0.commit.op_class_0::FloatSqrt            0      0.00%     56.85% # Class of committed instruction
system.cpu0.commit.op_class_0::SimdAdd              0      0.00%     56.85% # Class of committed instruction
system.cpu0.commit.op_class_0::SimdAddAcc            0      0.00%     56.85% # Class of committed instruction
system.cpu0.commit.op_class_0::SimdAlu              0      0.00%     56.85% # Class of committed instruction
system.cpu0.commit.op_class_0::SimdCmp              0      0.00%     56.85% # Class of committed instruction
system.cpu0.commit.op_class_0::SimdCvt              0      0.00%     56.85% # Class of committed instruction
system.cpu0.commit.op_class_0::SimdMisc             0      0.00%     56.85% # Class of committed instruction
system.cpu0.commit.op_class_0::SimdMult             0      0.00%     56.85% # Class of committed instruction
system.cpu0.commit.op_class_0::SimdMultAcc            0      0.00%     56.85% # Class of committed instruction
system.cpu0.commit.op_class_0::SimdShift            0      0.00%     56.85% # Class of committed instruction
system.cpu0.commit.op_class_0::SimdShiftAcc            0      0.00%     56.85% # Class of committed instruction
system.cpu0.commit.op_class_0::SimdDiv              0      0.00%     56.85% # Class of committed instruction
system.cpu0.commit.op_class_0::SimdSqrt             0      0.00%     56.85% # Class of committed instruction
system.cpu0.commit.op_class_0::SimdFloatAdd            0      0.00%     56.85% # Class of committed instruction
system.cpu0.commit.op_class_0::SimdFloatAlu            0      0.00%     56.85% # Class of committed instruction
system.cpu0.commit.op_class_0::SimdFloatCmp            0      0.00%     56.85% # Class of committed instruction
system.cpu0.commit.op_class_0::SimdFloatCvt            0      0.00%     56.85% # Class of committed instruction
system.cpu0.commit.op_class_0::SimdFloatDiv            0      0.00%     56.85% # Class of committed instruction
system.cpu0.commit.op_class_0::SimdFloatMisc            0      0.00%     56.85% # Class of committed instruction
system.cpu0.commit.op_class_0::SimdFloatMult            0      0.00%     56.85% # Class of committed instruction
system.cpu0.commit.op_class_0::SimdFloatMultAcc            0      0.00%     56.85% # Class of committed instruction
system.cpu0.commit.op_class_0::SimdFloatSqrt            0      0.00%     56.85% # Class of committed instruction
system.cpu0.commit.op_class_0::SimdReduceAdd            0      0.00%     56.85% # Class of committed instruction
system.cpu0.commit.op_class_0::SimdReduceAlu            0      0.00%     56.85% # Class of committed instruction
system.cpu0.commit.op_class_0::SimdReduceCmp            0      0.00%     56.85% # Class of committed instruction
system.cpu0.commit.op_class_0::SimdFloatReduceAdd            0      0.00%     56.85% # Class of committed instruction
system.cpu0.commit.op_class_0::SimdFloatReduceCmp            0      0.00%     56.85% # Class of committed instruction
system.cpu0.commit.op_class_0::SimdAes              0      0.00%     56.85% # Class of committed instruction
system.cpu0.commit.op_class_0::SimdAesMix            0      0.00%     56.85% # Class of committed instruction
system.cpu0.commit.op_class_0::SimdSha1Hash            0      0.00%     56.85% # Class of committed instruction
system.cpu0.commit.op_class_0::SimdSha1Hash2            0      0.00%     56.85% # Class of committed instruction
system.cpu0.commit.op_class_0::SimdSha256Hash            0      0.00%     56.85% # Class of committed instruction
system.cpu0.commit.op_class_0::SimdSha256Hash2            0      0.00%     56.85% # Class of committed instruction
system.cpu0.commit.op_class_0::SimdShaSigma2            0      0.00%     56.85% # Class of committed instruction
system.cpu0.commit.op_class_0::SimdShaSigma3            0      0.00%     56.85% # Class of committed instruction
system.cpu0.commit.op_class_0::SimdPredAlu            0      0.00%     56.85% # Class of committed instruction
system.cpu0.commit.op_class_0::MemRead      191162688     30.60%     87.45% # Class of committed instruction
system.cpu0.commit.op_class_0::MemWrite      78390957     12.55%    100.00% # Class of committed instruction
system.cpu0.commit.op_class_0::FloatMemRead            8      0.00%    100.00% # Class of committed instruction
system.cpu0.commit.op_class_0::FloatMemWrite           20      0.00%    100.00% # Class of committed instruction
system.cpu0.commit.op_class_0::IprAccess            0      0.00%    100.00% # Class of committed instruction
system.cpu0.commit.op_class_0::InstPrefetch            0      0.00%    100.00% # Class of committed instruction
system.cpu0.commit.op_class_0::total        624634185                       # Class of committed instruction
system.cpu0.commit.refs                     269553673                       # Number of memory references committed
system.cpu0.commit.swp_count                        0                       # Number of s/w prefetches committed
system.cpu0.commit.vec_insts                        0                       # Number of committed Vector instructions.
system.cpu0.committedInsts                  623614687                       # Number of Instructions Simulated
system.cpu0.committedOps                    624634185                       # Number of Ops (including micro ops) Simulated
system.cpu0.cpi                              2.277405                       # CPI: Cycles Per Instruction
system.cpu0.cpi_total                        2.277405                       # CPI: Total CPI of All Threads
system.cpu0.decode.BlockedCycles            226202690                       # Number of cycles decode is blocked
system.cpu0.decode.BranchMispred              5248060                       # Number of times decode detected a branch misprediction
system.cpu0.decode.BranchResolved            85112135                       # Number of times decode resolved a branch
system.cpu0.decode.DecodedInsts             708489717                       # Number of instructions handled by decode
system.cpu0.decode.IdleCycles               432571999                       # Number of cycles decode is idle
system.cpu0.decode.RunCycles                497398358                       # Number of cycles decode is running
system.cpu0.decode.SquashCycles               7638127                       # Number of cycles decode is squashing
system.cpu0.decode.SquashedInsts             10976176                       # Number of squashed instructions handled by decode
system.cpu0.decode.UnblockCycles              4404413                       # Number of cycles decode is unblocking
system.cpu0.dtb.accesses                            0                       # DTB accesses
system.cpu0.dtb.hits                                0                       # DTB hits
system.cpu0.dtb.misses                              0                       # DTB misses
system.cpu0.dtb.read_accesses                       0                       # DTB read accesses
system.cpu0.dtb.read_hits                           0                       # DTB read hits
system.cpu0.dtb.read_misses                         0                       # DTB read misses
system.cpu0.dtb.write_accesses                      0                       # DTB write accesses
system.cpu0.dtb.write_hits                          0                       # DTB write hits
system.cpu0.dtb.write_misses                        0                       # DTB write misses
system.cpu0.fetch.Branches                  168034041                       # Number of branches that fetch encountered
system.cpu0.fetch.CacheLines                128699728                       # Number of cache lines fetched
system.cpu0.fetch.Cycles                    727488464                       # Number of cycles fetch has run and was not squashing or blocked
system.cpu0.fetch.IcacheSquashes              2664523                       # Number of outstanding Icache misses that were squashed
system.cpu0.fetch.IcacheWaitRetryStallCycles           83                       # Number of stall cycles due to full MSHR
system.cpu0.fetch.Insts                     729579758                       # Number of instructions fetch has processed
system.cpu0.fetch.MiscStallCycles                 186                       # Number of cycles fetch has spent waiting on interrupts, or bad addresses, or out of MSHRs
system.cpu0.fetch.PendingTrapStallCycles          308                       # Number of stall cycles due to pending traps
system.cpu0.fetch.SquashCycles               25758216                       # Number of cycles fetch has spent squashing
system.cpu0.fetch.branchRate                 0.118315                       # Number of branch fetches per cycle
system.cpu0.fetch.icacheStallCycles         427847438                       # Number of cycles fetch is stalled on an Icache miss
system.cpu0.fetch.predictedBranches          99183956                       # Number of branches that fetch has predicted taken
system.cpu0.fetch.rate                       0.513708                       # Number of inst fetches per cycle
system.cpu0.fetch.rateDist::samples        1168215587                       # Number of instructions fetched each cycle (Total)
system.cpu0.fetch.rateDist::mean             0.625398                       # Number of instructions fetched each cycle (Total)
system.cpu0.fetch.rateDist::stdev            0.871409                       # Number of instructions fetched each cycle (Total)
system.cpu0.fetch.rateDist::underflows              0      0.00%      0.00% # Number of instructions fetched each cycle (Total)
system.cpu0.fetch.rateDist::0               639573884     54.75%     54.75% # Number of instructions fetched each cycle (Total)
system.cpu0.fetch.rateDist::1               397760043     34.05%     88.80% # Number of instructions fetched each cycle (Total)
system.cpu0.fetch.rateDist::2                81251017      6.96%     95.75% # Number of instructions fetched each cycle (Total)
system.cpu0.fetch.rateDist::3                36875619      3.16%     98.91% # Number of instructions fetched each cycle (Total)
system.cpu0.fetch.rateDist::4                 6567485      0.56%     99.47% # Number of instructions fetched each cycle (Total)
system.cpu0.fetch.rateDist::5                 4708999      0.40%     99.87% # Number of instructions fetched each cycle (Total)
system.cpu0.fetch.rateDist::6                  456780      0.04%     99.91% # Number of instructions fetched each cycle (Total)
system.cpu0.fetch.rateDist::7                 1018790      0.09%    100.00% # Number of instructions fetched each cycle (Total)
system.cpu0.fetch.rateDist::8                    2970      0.00%    100.00% # Number of instructions fetched each cycle (Total)
system.cpu0.fetch.rateDist::overflows               0      0.00%    100.00% # Number of instructions fetched each cycle (Total)
system.cpu0.fetch.rateDist::min_value               0                       # Number of instructions fetched each cycle (Total)
system.cpu0.fetch.rateDist::max_value               8                       # Number of instructions fetched each cycle (Total)
system.cpu0.fetch.rateDist::total          1168215587                       # Number of instructions fetched each cycle (Total)
system.cpu0.fp_regfile_reads                       50                       # number of floating regfile reads
system.cpu0.fp_regfile_writes                      25                       # number of floating regfile writes
system.cpu0.idleCycles                      252007914                       # Total number of cycles that the CPU has spent unscheduled due to idling
system.cpu0.iew.branchMispredicts             7698474                       # Number of branch mispredicts detected at execute
system.cpu0.iew.exec_branches               159593620                       # Number of branches executed
system.cpu0.iew.exec_nop                            0                       # number of nop insts executed
system.cpu0.iew.exec_rate                    0.479483                       # Inst execution rate
system.cpu0.iew.exec_refs                   304777809                       # number of memory reference insts executed
system.cpu0.iew.exec_stores                  88666793                       # Number of stores executed
system.cpu0.iew.exec_swp                            0                       # number of swp insts executed
system.cpu0.iew.iewBlockCycles              171700034                       # Number of cycles IEW is blocking
system.cpu0.iew.iewDispLoadInsts            215631790                       # Number of dispatched load instructions
system.cpu0.iew.iewDispNonSpecInsts           1021164                       # Number of dispatched non-speculative instructions
system.cpu0.iew.iewDispSquashedInsts          4702750                       # Number of squashed instructions skipped by dispatch
system.cpu0.iew.iewDispStoreInsts            90796125                       # Number of dispatched store instructions
system.cpu0.iew.iewDispatchedInsts          688947533                       # Number of instructions dispatched to IQ
system.cpu0.iew.iewExecLoadInsts            216111016                       # Number of load instructions executed
system.cpu0.iew.iewExecSquashedInsts          3743787                       # Number of squashed instructions skipped in execute
system.cpu0.iew.iewExecutedInsts            680973319                       # Number of executed instructions
system.cpu0.iew.iewIQFullEvents                796155                       # Number of times the IQ has become full, causing a stall
system.cpu0.iew.iewIdleCycles                       0                       # Number of cycles IEW is idle
system.cpu0.iew.iewLSQFullEvents              9498718                       # Number of times the LSQ has become full, causing a stall
system.cpu0.iew.iewSquashCycles               7638127                       # Number of cycles IEW is squashing
system.cpu0.iew.iewUnblockCycles             11578151                       # Number of cycles IEW is unblocking
system.cpu0.iew.lsq.thread0.blockedLoads            0                       # Number of blocked loads due to partial load-store forwarding
system.cpu0.iew.lsq.thread0.cacheBlocked       466726                       # Number of times an access to memory failed due to the cache being blocked
system.cpu0.iew.lsq.thread0.forwLoads        13999510                       # Number of loads that had data forwarded from stores
system.cpu0.iew.lsq.thread0.ignoredResponses         8826                       # Number of memory responses ignored because the instruction is squashed
system.cpu0.iew.lsq.thread0.invAddrLoads            0                       # Number of loads ignored due to an invalid address
system.cpu0.iew.lsq.thread0.invAddrSwpfs            0                       # Number of software prefetches ignored due to an invalid address
system.cpu0.iew.lsq.thread0.memOrderViolation         8732                       # Number of memory ordering violations
system.cpu0.iew.lsq.thread0.rescheduledLoads      3034738                       # Number of loads that were rescheduled
system.cpu0.iew.lsq.thread0.squashedLoads     25487304                       # Number of loads squashed
system.cpu0.iew.lsq.thread0.squashedStores     11386927                       # Number of stores squashed
system.cpu0.iew.memOrderViolationEvents          8732                       # Number of memory order violations
system.cpu0.iew.predictedNotTakenIncorrect       688331                       # Number of branches that were predicted not taken incorrectly
system.cpu0.iew.predictedTakenIncorrect       7010143                       # Number of branches that were predicted taken incorrectly
system.cpu0.iew.wb_consumers                297639782                       # num instructions consuming a value
system.cpu0.iew.wb_count                    673927271                       # cumulative count of insts written-back
system.cpu0.iew.wb_fanout                    0.840147                       # average fanout of values written-back
system.cpu0.iew.wb_producers                250061312                       # num instructions producing a value
system.cpu0.iew.wb_rate                      0.474522                       # insts written-back per cycle
system.cpu0.iew.wb_sent                     673988078                       # cumulative count of insts sent to commit
system.cpu0.int_regfile_reads               838039636                       # number of integer regfile reads
system.cpu0.int_regfile_writes              431665734                       # number of integer regfile writes
system.cpu0.ipc                              0.439096                       # IPC: Instructions Per Cycle
system.cpu0.ipc_total                        0.439096                       # IPC: Total IPC of All Threads
system.cpu0.iq.FU_type_0::No_OpClass          2038505      0.30%      0.30% # Type of FU issued
system.cpu0.iq.FU_type_0::IntAlu            369793292     54.01%     54.30% # Type of FU issued
system.cpu0.iq.FU_type_0::IntMult             4405006      0.64%     54.95% # Type of FU issued
system.cpu0.iq.FU_type_0::IntDiv              1542538      0.23%     55.17% # Type of FU issued
system.cpu0.iq.FU_type_0::FloatAdd                  0      0.00%     55.17% # Type of FU issued
system.cpu0.iq.FU_type_0::FloatCmp                  4      0.00%     55.17% # Type of FU issued
system.cpu0.iq.FU_type_0::FloatCvt                 12      0.00%     55.17% # Type of FU issued
system.cpu0.iq.FU_type_0::FloatMult                 0      0.00%     55.17% # Type of FU issued
system.cpu0.iq.FU_type_0::FloatMultAcc              2      0.00%     55.17% # Type of FU issued
system.cpu0.iq.FU_type_0::FloatDiv                  2      0.00%     55.17% # Type of FU issued
system.cpu0.iq.FU_type_0::FloatMisc                 4      0.00%     55.17% # Type of FU issued
system.cpu0.iq.FU_type_0::FloatSqrt                 0      0.00%     55.17% # Type of FU issued
system.cpu0.iq.FU_type_0::SimdAdd                   0      0.00%     55.17% # Type of FU issued
system.cpu0.iq.FU_type_0::SimdAddAcc                0      0.00%     55.17% # Type of FU issued
system.cpu0.iq.FU_type_0::SimdAlu                   0      0.00%     55.17% # Type of FU issued
system.cpu0.iq.FU_type_0::SimdCmp                   0      0.00%     55.17% # Type of FU issued
system.cpu0.iq.FU_type_0::SimdCvt                   0      0.00%     55.17% # Type of FU issued
system.cpu0.iq.FU_type_0::SimdMisc                  0      0.00%     55.17% # Type of FU issued
system.cpu0.iq.FU_type_0::SimdMult                  0      0.00%     55.17% # Type of FU issued
system.cpu0.iq.FU_type_0::SimdMultAcc               0      0.00%     55.17% # Type of FU issued
system.cpu0.iq.FU_type_0::SimdShift                 0      0.00%     55.17% # Type of FU issued
system.cpu0.iq.FU_type_0::SimdShiftAcc              0      0.00%     55.17% # Type of FU issued
system.cpu0.iq.FU_type_0::SimdDiv                   0      0.00%     55.17% # Type of FU issued
system.cpu0.iq.FU_type_0::SimdSqrt                  0      0.00%     55.17% # Type of FU issued
system.cpu0.iq.FU_type_0::SimdFloatAdd              0      0.00%     55.17% # Type of FU issued
system.cpu0.iq.FU_type_0::SimdFloatAlu              0      0.00%     55.17% # Type of FU issued
system.cpu0.iq.FU_type_0::SimdFloatCmp              0      0.00%     55.17% # Type of FU issued
system.cpu0.iq.FU_type_0::SimdFloatCvt              0      0.00%     55.17% # Type of FU issued
system.cpu0.iq.FU_type_0::SimdFloatDiv              0      0.00%     55.17% # Type of FU issued
system.cpu0.iq.FU_type_0::SimdFloatMisc             0      0.00%     55.17% # Type of FU issued
system.cpu0.iq.FU_type_0::SimdFloatMult             0      0.00%     55.17% # Type of FU issued
system.cpu0.iq.FU_type_0::SimdFloatMultAcc            0      0.00%     55.17% # Type of FU issued
system.cpu0.iq.FU_type_0::SimdFloatSqrt             0      0.00%     55.17% # Type of FU issued
system.cpu0.iq.FU_type_0::SimdReduceAdd             0      0.00%     55.17% # Type of FU issued
system.cpu0.iq.FU_type_0::SimdReduceAlu             0      0.00%     55.17% # Type of FU issued
system.cpu0.iq.FU_type_0::SimdReduceCmp             0      0.00%     55.17% # Type of FU issued
system.cpu0.iq.FU_type_0::SimdFloatReduceAdd            0      0.00%     55.17% # Type of FU issued
system.cpu0.iq.FU_type_0::SimdFloatReduceCmp            0      0.00%     55.17% # Type of FU issued
system.cpu0.iq.FU_type_0::SimdAes                   0      0.00%     55.17% # Type of FU issued
system.cpu0.iq.FU_type_0::SimdAesMix                0      0.00%     55.17% # Type of FU issued
system.cpu0.iq.FU_type_0::SimdSha1Hash              0      0.00%     55.17% # Type of FU issued
system.cpu0.iq.FU_type_0::SimdSha1Hash2             0      0.00%     55.17% # Type of FU issued
system.cpu0.iq.FU_type_0::SimdSha256Hash            0      0.00%     55.17% # Type of FU issued
system.cpu0.iq.FU_type_0::SimdSha256Hash2            0      0.00%     55.17% # Type of FU issued
system.cpu0.iq.FU_type_0::SimdShaSigma2             0      0.00%     55.17% # Type of FU issued
system.cpu0.iq.FU_type_0::SimdShaSigma3             0      0.00%     55.17% # Type of FU issued
system.cpu0.iq.FU_type_0::SimdPredAlu               0      0.00%     55.17% # Type of FU issued
system.cpu0.iq.FU_type_0::MemRead           218817719     31.96%     87.13% # Type of FU issued
system.cpu0.iq.FU_type_0::MemWrite           88119994     12.87%    100.00% # Type of FU issued
system.cpu0.iq.FU_type_0::FloatMemRead              9      0.00%    100.00% # Type of FU issued
system.cpu0.iq.FU_type_0::FloatMemWrite            20      0.00%    100.00% # Type of FU issued
system.cpu0.iq.FU_type_0::IprAccess                 0      0.00%    100.00% # Type of FU issued
system.cpu0.iq.FU_type_0::InstPrefetch              0      0.00%    100.00% # Type of FU issued
system.cpu0.iq.FU_type_0::total             684717107                       # Type of FU issued
system.cpu0.iq.fp_alu_accesses                     57                       # Number of floating point alu accesses
system.cpu0.iq.fp_inst_queue_reads                110                       # Number of floating instruction queue reads
system.cpu0.iq.fp_inst_queue_wakeup_accesses           53                       # Number of floating instruction queue wakeup accesses
system.cpu0.iq.fp_inst_queue_writes                56                       # Number of floating instruction queue writes
system.cpu0.iq.fu_busy_cnt                    2672684                       # FU busy when requested
system.cpu0.iq.fu_busy_rate                  0.003903                       # FU busy rate (busy events/executed inst)
system.cpu0.iq.fu_full::No_OpClass                  0      0.00%      0.00% # attempts to use FU when none available
system.cpu0.iq.fu_full::IntAlu                 427217     15.98%     15.98% # attempts to use FU when none available
system.cpu0.iq.fu_full::IntMult                  1546      0.06%     16.04% # attempts to use FU when none available
system.cpu0.iq.fu_full::IntDiv                 451271     16.88%     32.93% # attempts to use FU when none available
system.cpu0.iq.fu_full::FloatAdd                    0      0.00%     32.93% # attempts to use FU when none available
system.cpu0.iq.fu_full::FloatCmp                    0      0.00%     32.93% # attempts to use FU when none available
system.cpu0.iq.fu_full::FloatCvt                    0      0.00%     32.93% # attempts to use FU when none available
system.cpu0.iq.fu_full::FloatMult                   0      0.00%     32.93% # attempts to use FU when none available
system.cpu0.iq.fu_full::FloatMultAcc                0      0.00%     32.93% # attempts to use FU when none available
system.cpu0.iq.fu_full::FloatDiv                    0      0.00%     32.93% # attempts to use FU when none available
system.cpu0.iq.fu_full::FloatMisc                   0      0.00%     32.93% # attempts to use FU when none available
system.cpu0.iq.fu_full::FloatSqrt                   0      0.00%     32.93% # attempts to use FU when none available
system.cpu0.iq.fu_full::SimdAdd                     0      0.00%     32.93% # attempts to use FU when none available
system.cpu0.iq.fu_full::SimdAddAcc                  0      0.00%     32.93% # attempts to use FU when none available
system.cpu0.iq.fu_full::SimdAlu                     0      0.00%     32.93% # attempts to use FU when none available
system.cpu0.iq.fu_full::SimdCmp                     0      0.00%     32.93% # attempts to use FU when none available
system.cpu0.iq.fu_full::SimdCvt                     0      0.00%     32.93% # attempts to use FU when none available
system.cpu0.iq.fu_full::SimdMisc                    0      0.00%     32.93% # attempts to use FU when none available
system.cpu0.iq.fu_full::SimdMult                    0      0.00%     32.93% # attempts to use FU when none available
system.cpu0.iq.fu_full::SimdMultAcc                 0      0.00%     32.93% # attempts to use FU when none available
system.cpu0.iq.fu_full::SimdShift                   0      0.00%     32.93% # attempts to use FU when none available
system.cpu0.iq.fu_full::SimdShiftAcc                0      0.00%     32.93% # attempts to use FU when none available
system.cpu0.iq.fu_full::SimdDiv                     0      0.00%     32.93% # attempts to use FU when none available
system.cpu0.iq.fu_full::SimdSqrt                    0      0.00%     32.93% # attempts to use FU when none available
system.cpu0.iq.fu_full::SimdFloatAdd                0      0.00%     32.93% # attempts to use FU when none available
system.cpu0.iq.fu_full::SimdFloatAlu                0      0.00%     32.93% # attempts to use FU when none available
system.cpu0.iq.fu_full::SimdFloatCmp                0      0.00%     32.93% # attempts to use FU when none available
system.cpu0.iq.fu_full::SimdFloatCvt                0      0.00%     32.93% # attempts to use FU when none available
system.cpu0.iq.fu_full::SimdFloatDiv                0      0.00%     32.93% # attempts to use FU when none available
system.cpu0.iq.fu_full::SimdFloatMisc               0      0.00%     32.93% # attempts to use FU when none available
system.cpu0.iq.fu_full::SimdFloatMult               0      0.00%     32.93% # attempts to use FU when none available
system.cpu0.iq.fu_full::SimdFloatMultAcc            0      0.00%     32.93% # attempts to use FU when none available
system.cpu0.iq.fu_full::SimdFloatSqrt               0      0.00%     32.93% # attempts to use FU when none available
system.cpu0.iq.fu_full::SimdReduceAdd               0      0.00%     32.93% # attempts to use FU when none available
system.cpu0.iq.fu_full::SimdReduceAlu               0      0.00%     32.93% # attempts to use FU when none available
system.cpu0.iq.fu_full::SimdReduceCmp               0      0.00%     32.93% # attempts to use FU when none available
system.cpu0.iq.fu_full::SimdFloatReduceAdd            0      0.00%     32.93% # attempts to use FU when none available
system.cpu0.iq.fu_full::SimdFloatReduceCmp            0      0.00%     32.93% # attempts to use FU when none available
system.cpu0.iq.fu_full::SimdAes                     0      0.00%     32.93% # attempts to use FU when none available
system.cpu0.iq.fu_full::SimdAesMix                  0      0.00%     32.93% # attempts to use FU when none available
system.cpu0.iq.fu_full::SimdSha1Hash                0      0.00%     32.93% # attempts to use FU when none available
system.cpu0.iq.fu_full::SimdSha1Hash2               0      0.00%     32.93% # attempts to use FU when none available
system.cpu0.iq.fu_full::SimdSha256Hash              0      0.00%     32.93% # attempts to use FU when none available
system.cpu0.iq.fu_full::SimdSha256Hash2             0      0.00%     32.93% # attempts to use FU when none available
system.cpu0.iq.fu_full::SimdShaSigma2               0      0.00%     32.93% # attempts to use FU when none available
system.cpu0.iq.fu_full::SimdShaSigma3               0      0.00%     32.93% # attempts to use FU when none available
system.cpu0.iq.fu_full::SimdPredAlu                 0      0.00%     32.93% # attempts to use FU when none available
system.cpu0.iq.fu_full::MemRead               1572288     58.83%     91.76% # attempts to use FU when none available
system.cpu0.iq.fu_full::MemWrite               220358      8.24%    100.00% # attempts to use FU when none available
system.cpu0.iq.fu_full::FloatMemRead                0      0.00%    100.00% # attempts to use FU when none available
system.cpu0.iq.fu_full::FloatMemWrite               4      0.00%    100.00% # attempts to use FU when none available
system.cpu0.iq.fu_full::IprAccess                   0      0.00%    100.00% # attempts to use FU when none available
system.cpu0.iq.fu_full::InstPrefetch                0      0.00%    100.00% # attempts to use FU when none available
system.cpu0.iq.int_alu_accesses             685351229                       # Number of integer alu accesses
system.cpu0.iq.int_inst_queue_reads        2540486425                       # Number of integer instruction queue reads
system.cpu0.iq.int_inst_queue_wakeup_accesses    673927218                       # Number of integer instruction queue wakeup accesses
system.cpu0.iq.int_inst_queue_writes        753268792                       # Number of integer instruction queue writes
system.cpu0.iq.iqInstsAdded                 685888449                       # Number of instructions added to the IQ (excludes non-spec)
system.cpu0.iq.iqInstsIssued                684717107                       # Number of instructions issued
system.cpu0.iq.iqNonSpecInstsAdded            3059084                       # Number of non-speculative instructions added to the IQ
system.cpu0.iq.iqSquashedInstsExamined       64313263                       # Number of squashed instructions iterated over during squash; mainly for profiling
system.cpu0.iq.iqSquashedInstsIssued           164051                       # Number of squashed instructions issued
system.cpu0.iq.iqSquashedNonSpecRemoved           575                       # Number of squashed non-spec instructions that were removed
system.cpu0.iq.iqSquashedOperandsExamined     18009620                       # Number of squashed operands that are examined and possibly removed from graph
system.cpu0.iq.issued_per_cycle::samples   1168215587                       # Number of insts issued each cycle
system.cpu0.iq.issued_per_cycle::mean        0.586122                       # Number of insts issued each cycle
system.cpu0.iq.issued_per_cycle::stdev       0.835750                       # Number of insts issued each cycle
system.cpu0.iq.issued_per_cycle::underflows            0      0.00%      0.00% # Number of insts issued each cycle
system.cpu0.iq.issued_per_cycle::0          677093113     57.96%     57.96% # Number of insts issued each cycle
system.cpu0.iq.issued_per_cycle::1          343857617     29.43%     87.39% # Number of insts issued each cycle
system.cpu0.iq.issued_per_cycle::2          117819616     10.09%     97.48% # Number of insts issued each cycle
system.cpu0.iq.issued_per_cycle::3           18752656      1.61%     99.08% # Number of insts issued each cycle
system.cpu0.iq.issued_per_cycle::4            7155201      0.61%     99.70% # Number of insts issued each cycle
system.cpu0.iq.issued_per_cycle::5            1409772      0.12%     99.82% # Number of insts issued each cycle
system.cpu0.iq.issued_per_cycle::6            1709934      0.15%     99.96% # Number of insts issued each cycle
system.cpu0.iq.issued_per_cycle::7             308402      0.03%     99.99% # Number of insts issued each cycle
system.cpu0.iq.issued_per_cycle::8             109276      0.01%    100.00% # Number of insts issued each cycle
system.cpu0.iq.issued_per_cycle::overflows            0      0.00%    100.00% # Number of insts issued each cycle
system.cpu0.iq.issued_per_cycle::min_value            0                       # Number of insts issued each cycle
system.cpu0.iq.issued_per_cycle::max_value            8                       # Number of insts issued each cycle
system.cpu0.iq.issued_per_cycle::total     1168215587                       # Number of insts issued each cycle
system.cpu0.iq.rate                          0.482119                       # Inst issue rate
system.cpu0.iq.vec_alu_accesses                     0                       # Number of vector alu accesses
system.cpu0.iq.vec_inst_queue_reads                 0                       # Number of vector instruction queue reads
system.cpu0.iq.vec_inst_queue_wakeup_accesses            0                       # Number of vector instruction queue wakeup accesses
system.cpu0.iq.vec_inst_queue_writes                0                       # Number of vector instruction queue writes
system.cpu0.itb.accesses                            0                       # DTB accesses
system.cpu0.itb.hits                                0                       # DTB hits
system.cpu0.itb.misses                              0                       # DTB misses
system.cpu0.itb.read_accesses                       0                       # DTB read accesses
system.cpu0.itb.read_hits                           0                       # DTB read hits
system.cpu0.itb.read_misses                         0                       # DTB read misses
system.cpu0.itb.write_accesses                      0                       # DTB write accesses
system.cpu0.itb.write_hits                          0                       # DTB write hits
system.cpu0.itb.write_misses                        0                       # DTB write misses
system.cpu0.memDep0.conflictingLoads         11837397                       # Number of conflicting loads.
system.cpu0.memDep0.conflictingStores         5725220                       # Number of conflicting stores.
system.cpu0.memDep0.insertedLoads           215631790                       # Number of loads inserted to the mem dependence unit.
system.cpu0.memDep0.insertedStores           90796125                       # Number of stores inserted to the mem dependence unit.
system.cpu0.misc_regfile_reads                    880                       # number of misc regfile reads
system.cpu0.misc_regfile_writes                    22                       # number of misc regfile writes
system.cpu0.numCycles                      1420223501                       # number of cpu cycles simulated
system.cpu0.numWorkItemsCompleted                   0                       # number of work items this cpu completed
system.cpu0.numWorkItemsStarted                     0                       # number of work items this cpu started
system.cpu0.quiesceCycles                    11357100                       # Total number of cycles that CPU has spent quiesced or waiting for an interrupt
system.cpu0.rename.BlockCycles              191112647                       # Number of cycles rename is blocking
system.cpu0.rename.CommittedMaps            399040358                       # Number of HB maps that are committed
system.cpu0.rename.IQFullEvents               7560392                       # Number of times rename has blocked due to IQ full
system.cpu0.rename.IdleCycles               444023461                       # Number of cycles rename is idle
system.cpu0.rename.LQFullEvents              11813525                       # Number of times rename has blocked due to LQ full
system.cpu0.rename.ROBFullEvents                18334                       # Number of times rename has blocked due to ROB full
system.cpu0.rename.RenameLookups            865500312                       # Number of register rename lookups that rename has made
system.cpu0.rename.RenamedInsts             702163756                       # Number of instructions processed by rename
system.cpu0.rename.RenamedOperands          452769473                       # Number of destination operands rename has renamed
system.cpu0.rename.RunCycles                489861398                       # Number of cycles rename is running
system.cpu0.rename.SQFullEvents              15863472                       # Number of times rename has blocked due to SQ full
system.cpu0.rename.SquashCycles               7638127                       # Number of cycles rename is squashing
system.cpu0.rename.UnblockCycles             35484360                       # Number of cycles rename is unblocking
system.cpu0.rename.UndoneMaps                53729047                       # Number of HB maps that are undone due to squashing
system.cpu0.rename.fp_rename_lookups               50                       # Number of floating rename lookups
system.cpu0.rename.int_rename_lookups       865500262                       # Number of integer rename lookups
system.cpu0.rename.serializeStallCycles         95594                       # count of cycles rename stalled for serializing inst
system.cpu0.rename.serializingInsts              2865                       # count of serializing insts renamed
system.cpu0.rename.skidInsts                 17115594                       # count of insts added to the skid buffer
system.cpu0.rename.tempSerializingInsts          2855                       # count of temporary serializing insts renamed
system.cpu0.rob.rob_reads                  1822233279                       # The number of ROB reads
system.cpu0.rob.rob_writes                 1392262135                       # The number of ROB writes
system.cpu0.timesIdled                       13612244                       # Number of times that the entire CPU went into an idle state and unscheduled itself
system.cpu0.workload.numSyscalls                  845                       # Number of system calls
system.cpu1.branchPred.BTBCorrect                   0                       # Number of correct BTB predictions (this stat may not work properly.
system.cpu1.branchPred.BTBHitPct            73.645034                       # BTB Hit Percentage
system.cpu1.branchPred.BTBHits                7248064                       # Number of BTB hits
system.cpu1.branchPred.BTBLookups             9841891                       # Number of BTB lookups
system.cpu1.branchPred.RASInCorrect                 0                       # Number of incorrect RAS predictions.
system.cpu1.branchPred.condIncorrect          1136711                       # Number of conditional branches incorrect
system.cpu1.branchPred.condPredicted         11228029                       # Number of conditional branches predicted
system.cpu1.branchPred.indirectHits            801296                       # Number of indirect target hits.
system.cpu1.branchPred.indirectLookups         951273                       # Number of indirect predictor lookups.
system.cpu1.branchPred.indirectMisses          149977                       # Number of indirect misses.
system.cpu1.branchPred.lookups               13595257                       # Number of BP lookups
system.cpu1.branchPred.usedRAS                      0                       # Number of times the RAS was used to get a target.
system.cpu1.branchPredindirectMispredicted        10136                       # Number of mispredicted indirect branches.
system.cpu1.commit.amos                       1017938                       # Number of atomic instructions committed
system.cpu1.commit.branchMispredicts           660845                       # The number of times a branch was mispredicted
system.cpu1.commit.branches                  10114943                       # Number of branches committed
system.cpu1.commit.bw_lim_events              2693164                       # number cycles where commit BW limit reached
system.cpu1.commit.commitNonSpecStalls        3054466                       # The number of times commit has been forced to stall to communicate backwards
system.cpu1.commit.commitSquashedInsts        9467994                       # The number of squashed insts skipped by commit
system.cpu1.commit.committedInsts            57391417                       # Number of instructions committed
system.cpu1.commit.committedOps              58409525                       # Number of ops (including micro ops) committed
system.cpu1.commit.committed_per_cycle::samples    239001850                       # Number of insts commited each cycle
system.cpu1.commit.committed_per_cycle::mean     0.244389                       # Number of insts commited each cycle
system.cpu1.commit.committed_per_cycle::stdev     1.059746                       # Number of insts commited each cycle
system.cpu1.commit.committed_per_cycle::underflows            0      0.00%      0.00% # Number of insts commited each cycle
system.cpu1.commit.committed_per_cycle::0    217892560     91.17%     91.17% # Number of insts commited each cycle
system.cpu1.commit.committed_per_cycle::1      9864031      4.13%     95.29% # Number of insts commited each cycle
system.cpu1.commit.committed_per_cycle::2      3745570      1.57%     96.86% # Number of insts commited each cycle
system.cpu1.commit.committed_per_cycle::3      1998579      0.84%     97.70% # Number of insts commited each cycle
system.cpu1.commit.committed_per_cycle::4      1347654      0.56%     98.26% # Number of insts commited each cycle
system.cpu1.commit.committed_per_cycle::5       833706      0.35%     98.61% # Number of insts commited each cycle
system.cpu1.commit.committed_per_cycle::6       431943      0.18%     98.79% # Number of insts commited each cycle
system.cpu1.commit.committed_per_cycle::7       194643      0.08%     98.87% # Number of insts commited each cycle
system.cpu1.commit.committed_per_cycle::8      2693164      1.13%    100.00% # Number of insts commited each cycle
system.cpu1.commit.committed_per_cycle::overflows            0      0.00%    100.00% # Number of insts commited each cycle
system.cpu1.commit.committed_per_cycle::min_value            0                       # Number of insts commited each cycle
system.cpu1.commit.committed_per_cycle::max_value            8                       # Number of insts commited each cycle
system.cpu1.commit.committed_per_cycle::total    239001850                       # Number of insts commited each cycle
system.cpu1.commit.fp_insts                        12                       # Number of committed floating point instructions.
system.cpu1.commit.function_calls             1442963                       # Number of function calls committed.
system.cpu1.commit.int_insts                 55973609                       # Number of committed integer instructions.
system.cpu1.commit.loads                     14461127                       # Number of loads committed
system.cpu1.commit.membars                    2035990                       # Number of memory barriers committed
system.cpu1.commit.op_class_0::No_OpClass      2035990      3.49%      3.49% # Class of committed instruction
system.cpu1.commit.op_class_0::IntAlu        34547780     59.15%     62.63% # Class of committed instruction
system.cpu1.commit.op_class_0::IntMult         248003      0.42%     63.06% # Class of committed instruction
system.cpu1.commit.op_class_0::IntDiv          493477      0.84%     63.90% # Class of committed instruction
system.cpu1.commit.op_class_0::FloatAdd             0      0.00%     63.90% # Class of committed instruction
system.cpu1.commit.op_class_0::FloatCmp             0      0.00%     63.90% # Class of committed instruction
system.cpu1.commit.op_class_0::FloatCvt             0      0.00%     63.90% # Class of committed instruction
system.cpu1.commit.op_class_0::FloatMult            0      0.00%     63.90% # Class of committed instruction
system.cpu1.commit.op_class_0::FloatMultAcc            0      0.00%     63.90% # Class of committed instruction
system.cpu1.commit.op_class_0::FloatDiv             0      0.00%     63.90% # Class of committed instruction
system.cpu1.commit.op_class_0::FloatMisc            0      0.00%     63.90% # Class of committed instruction
system.cpu1.commit.op_class_0::FloatSqrt            0      0.00%     63.90% # Class of committed instruction
system.cpu1.commit.op_class_0::SimdAdd              0      0.00%     63.90% # Class of committed instruction
system.cpu1.commit.op_class_0::SimdAddAcc            0      0.00%     63.90% # Class of committed instruction
system.cpu1.commit.op_class_0::SimdAlu              0      0.00%     63.90% # Class of committed instruction
system.cpu1.commit.op_class_0::SimdCmp              0      0.00%     63.90% # Class of committed instruction
system.cpu1.commit.op_class_0::SimdCvt              0      0.00%     63.90% # Class of committed instruction
system.cpu1.commit.op_class_0::SimdMisc             0      0.00%     63.90% # Class of committed instruction
system.cpu1.commit.op_class_0::SimdMult             0      0.00%     63.90% # Class of committed instruction
system.cpu1.commit.op_class_0::SimdMultAcc            0      0.00%     63.90% # Class of committed instruction
system.cpu1.commit.op_class_0::SimdShift            0      0.00%     63.90% # Class of committed instruction
system.cpu1.commit.op_class_0::SimdShiftAcc            0      0.00%     63.90% # Class of committed instruction
system.cpu1.commit.op_class_0::SimdDiv              0      0.00%     63.90% # Class of committed instruction
system.cpu1.commit.op_class_0::SimdSqrt             0      0.00%     63.90% # Class of committed instruction
system.cpu1.commit.op_class_0::SimdFloatAdd            0      0.00%     63.90% # Class of committed instruction
system.cpu1.commit.op_class_0::SimdFloatAlu            0      0.00%     63.90% # Class of committed instruction
system.cpu1.commit.op_class_0::SimdFloatCmp            0      0.00%     63.90% # Class of committed instruction
system.cpu1.commit.op_class_0::SimdFloatCvt            0      0.00%     63.90% # Class of committed instruction
system.cpu1.commit.op_class_0::SimdFloatDiv            0      0.00%     63.90% # Class of committed instruction
system.cpu1.commit.op_class_0::SimdFloatMisc            0      0.00%     63.90% # Class of committed instruction
system.cpu1.commit.op_class_0::SimdFloatMult            0      0.00%     63.90% # Class of committed instruction
system.cpu1.commit.op_class_0::SimdFloatMultAcc            0      0.00%     63.90% # Class of committed instruction
system.cpu1.commit.op_class_0::SimdFloatSqrt            0      0.00%     63.90% # Class of committed instruction
system.cpu1.commit.op_class_0::SimdReduceAdd            0      0.00%     63.90% # Class of committed instruction
system.cpu1.commit.op_class_0::SimdReduceAlu            0      0.00%     63.90% # Class of committed instruction
system.cpu1.commit.op_class_0::SimdReduceCmp            0      0.00%     63.90% # Class of committed instruction
system.cpu1.commit.op_class_0::SimdFloatReduceAdd            0      0.00%     63.90% # Class of committed instruction
system.cpu1.commit.op_class_0::SimdFloatReduceCmp            0      0.00%     63.90% # Class of committed instruction
system.cpu1.commit.op_class_0::SimdAes              0      0.00%     63.90% # Class of committed instruction
system.cpu1.commit.op_class_0::SimdAesMix            0      0.00%     63.90% # Class of committed instruction
system.cpu1.commit.op_class_0::SimdSha1Hash            0      0.00%     63.90% # Class of committed instruction
system.cpu1.commit.op_class_0::SimdSha1Hash2            0      0.00%     63.90% # Class of committed instruction
system.cpu1.commit.op_class_0::SimdSha256Hash            0      0.00%     63.90% # Class of committed instruction
system.cpu1.commit.op_class_0::SimdSha256Hash2            0      0.00%     63.90% # Class of committed instruction
system.cpu1.commit.op_class_0::SimdShaSigma2            0      0.00%     63.90% # Class of committed instruction
system.cpu1.commit.op_class_0::SimdShaSigma3            0      0.00%     63.90% # Class of committed instruction
system.cpu1.commit.op_class_0::SimdPredAlu            0      0.00%     63.90% # Class of committed instruction
system.cpu1.commit.op_class_0::MemRead       15479065     26.50%     90.40% # Class of committed instruction
system.cpu1.commit.op_class_0::MemWrite       5605198      9.60%    100.00% # Class of committed instruction
system.cpu1.commit.op_class_0::FloatMemRead            0      0.00%    100.00% # Class of committed instruction
system.cpu1.commit.op_class_0::FloatMemWrite           12      0.00%    100.00% # Class of committed instruction
system.cpu1.commit.op_class_0::IprAccess            0      0.00%    100.00% # Class of committed instruction
system.cpu1.commit.op_class_0::InstPrefetch            0      0.00%    100.00% # Class of committed instruction
system.cpu1.commit.op_class_0::total         58409525                       # Class of committed instruction
system.cpu1.commit.refs                      21084275                       # Number of memory references committed
system.cpu1.commit.swp_count                        0                       # Number of s/w prefetches committed
system.cpu1.commit.vec_insts                        0                       # Number of committed Vector instructions.
system.cpu1.committedInsts                   57391417                       # Number of Instructions Simulated
system.cpu1.committedOps                     58409525                       # Number of Ops (including micro ops) Simulated
system.cpu1.cpi                              4.207561                       # CPI: Cycles Per Instruction
system.cpu1.cpi_total                        4.207561                       # CPI: Total CPI of All Threads
system.cpu1.decode.BlockedCycles            196327174                       # Number of cycles decode is blocked
system.cpu1.decode.BranchMispred               483135                       # Number of times decode detected a branch misprediction
system.cpu1.decode.BranchResolved             6648502                       # Number of times decode resolved a branch
system.cpu1.decode.DecodedInsts              71709579                       # Number of instructions handled by decode
system.cpu1.decode.IdleCycles                 9418517                       # Number of cycles decode is idle
system.cpu1.decode.RunCycles                 31736217                       # Number of cycles decode is running
system.cpu1.decode.SquashCycles                661152                       # Number of cycles decode is squashing
system.cpu1.decode.SquashedInsts               976902                       # Number of squashed instructions handled by decode
system.cpu1.decode.UnblockCycles              2493309                       # Number of cycles decode is unblocking
system.cpu1.dtb.accesses                            0                       # DTB accesses
system.cpu1.dtb.hits                                0                       # DTB hits
system.cpu1.dtb.misses                              0                       # DTB misses
system.cpu1.dtb.read_accesses                       0                       # DTB read accesses
system.cpu1.dtb.read_hits                           0                       # DTB read hits
system.cpu1.dtb.read_misses                         0                       # DTB read misses
system.cpu1.dtb.write_accesses                      0                       # DTB write accesses
system.cpu1.dtb.write_hits                          0                       # DTB write hits
system.cpu1.dtb.write_misses                        0                       # DTB write misses
system.cpu1.fetch.Branches                   13595257                       # Number of branches that fetch encountered
system.cpu1.fetch.CacheLines                  9832091                       # Number of cache lines fetched
system.cpu1.fetch.Cycles                    228448094                       # Number of cycles fetch has run and was not squashing or blocked
system.cpu1.fetch.IcacheSquashes                95226                       # Number of outstanding Icache misses that were squashed
system.cpu1.fetch.Insts                      77787471                       # Number of instructions fetch has processed
system.cpu1.fetch.MiscStallCycles                   1                       # Number of cycles fetch has spent waiting on interrupts, or bad addresses, or out of MSHRs
system.cpu1.fetch.SquashCycles                2274036                       # Number of cycles fetch has spent squashing
system.cpu1.fetch.branchRate                 0.056300                       # Number of branch fetches per cycle
system.cpu1.fetch.icacheStallCycles          11051256                       # Number of cycles fetch is stalled on an Icache miss
system.cpu1.fetch.predictedBranches           8049360                       # Number of branches that fetch has predicted taken
system.cpu1.fetch.rate                       0.322131                       # Number of inst fetches per cycle
system.cpu1.fetch.rateDist::samples         240636369                       # Number of instructions fetched each cycle (Total)
system.cpu1.fetch.rateDist::mean             0.329213                       # Number of instructions fetched each cycle (Total)
system.cpu1.fetch.rateDist::stdev            0.794219                       # Number of instructions fetched each cycle (Total)
system.cpu1.fetch.rateDist::underflows              0      0.00%      0.00% # Number of instructions fetched each cycle (Total)
system.cpu1.fetch.rateDist::0               191032206     79.39%     79.39% # Number of instructions fetched each cycle (Total)
system.cpu1.fetch.rateDist::1                31689521     13.17%     92.56% # Number of instructions fetched each cycle (Total)
system.cpu1.fetch.rateDist::2                11376044      4.73%     97.28% # Number of instructions fetched each cycle (Total)
system.cpu1.fetch.rateDist::3                 3719893      1.55%     98.83% # Number of instructions fetched each cycle (Total)
system.cpu1.fetch.rateDist::4                  972485      0.40%     99.23% # Number of instructions fetched each cycle (Total)
system.cpu1.fetch.rateDist::5                 1348447      0.56%     99.79% # Number of instructions fetched each cycle (Total)
system.cpu1.fetch.rateDist::6                  497545      0.21%    100.00% # Number of instructions fetched each cycle (Total)
system.cpu1.fetch.rateDist::7                       8      0.00%    100.00% # Number of instructions fetched each cycle (Total)
system.cpu1.fetch.rateDist::8                     220      0.00%    100.00% # Number of instructions fetched each cycle (Total)
system.cpu1.fetch.rateDist::overflows               0      0.00%    100.00% # Number of instructions fetched each cycle (Total)
system.cpu1.fetch.rateDist::min_value               0                       # Number of instructions fetched each cycle (Total)
system.cpu1.fetch.rateDist::max_value               8                       # Number of instructions fetched each cycle (Total)
system.cpu1.fetch.rateDist::total           240636369                       # Number of instructions fetched each cycle (Total)
system.cpu1.fp_regfile_reads                       12                       # number of floating regfile reads
system.cpu1.idleCycles                         841533                       # Total number of cycles that the CPU has spent unscheduled due to idling
system.cpu1.iew.branchMispredicts              698565                       # Number of branch mispredicts detected at execute
system.cpu1.iew.exec_branches                11264220                       # Number of branches executed
system.cpu1.iew.exec_nop                            0                       # number of nop insts executed
system.cpu1.iew.exec_rate                    0.261629                       # Inst execution rate
system.cpu1.iew.exec_refs                    22402941                       # number of memory reference insts executed
system.cpu1.iew.exec_stores                   6801591                       # Number of stores executed
system.cpu1.iew.exec_swp                            0                       # number of swp insts executed
system.cpu1.iew.iewBlockCycles              163894447                       # Number of cycles IEW is blocking
system.cpu1.iew.iewDispLoadInsts             16515725                       # Number of dispatched load instructions
system.cpu1.iew.iewDispNonSpecInsts           1188192                       # Number of dispatched non-speculative instructions
system.cpu1.iew.iewDispSquashedInsts           803252                       # Number of squashed instructions skipped by dispatch
system.cpu1.iew.iewDispStoreInsts             7533289                       # Number of dispatched store instructions
system.cpu1.iew.iewDispatchedInsts           67868071                       # Number of instructions dispatched to IQ
system.cpu1.iew.iewExecLoadInsts             15601350                       # Number of load instructions executed
system.cpu1.iew.iewExecSquashedInsts           660682                       # Number of squashed instructions skipped in execute
system.cpu1.iew.iewExecutedInsts             63177558                       # Number of executed instructions
system.cpu1.iew.iewIQFullEvents                947365                       # Number of times the IQ has become full, causing a stall
system.cpu1.iew.iewIdleCycles                       0                       # Number of cycles IEW is idle
system.cpu1.iew.iewLSQFullEvents              3463811                       # Number of times the LSQ has become full, causing a stall
system.cpu1.iew.iewSquashCycles                661152                       # Number of cycles IEW is squashing
system.cpu1.iew.iewUnblockCycles              5667066                       # Number of cycles IEW is unblocking
system.cpu1.iew.lsq.thread0.blockedLoads            0                       # Number of blocked loads due to partial load-store forwarding
system.cpu1.iew.lsq.thread0.cacheBlocked        19885                       # Number of times an access to memory failed due to the cache being blocked
system.cpu1.iew.lsq.thread0.forwLoads          777667                       # Number of loads that had data forwarded from stores
system.cpu1.iew.lsq.thread0.ignoredResponses         6314                       # Number of memory responses ignored because the instruction is squashed
system.cpu1.iew.lsq.thread0.invAddrLoads            0                       # Number of loads ignored due to an invalid address
system.cpu1.iew.lsq.thread0.invAddrSwpfs            0                       # Number of software prefetches ignored due to an invalid address
system.cpu1.iew.lsq.thread0.memOrderViolation          327                       # Number of memory ordering violations
system.cpu1.iew.lsq.thread0.rescheduledLoads          358                       # Number of loads that were rescheduled
system.cpu1.iew.lsq.thread0.squashedLoads      2054598                       # Number of loads squashed
system.cpu1.iew.lsq.thread0.squashedStores       910141                       # Number of stores squashed
system.cpu1.iew.memOrderViolationEvents           327                       # Number of memory order violations
system.cpu1.iew.predictedNotTakenIncorrect        78730                       # Number of branches that were predicted not taken incorrectly
system.cpu1.iew.predictedTakenIncorrect        619835                       # Number of branches that were predicted taken incorrectly
system.cpu1.iew.wb_consumers                 37445017                       # num instructions consuming a value
system.cpu1.iew.wb_count                     62772667                       # cumulative count of insts written-back
system.cpu1.iew.wb_fanout                    0.816880                       # average fanout of values written-back
system.cpu1.iew.wb_producers                 30588088                       # num instructions producing a value
system.cpu1.iew.wb_rate                      0.259952                       # insts written-back per cycle
system.cpu1.iew.wb_sent                      62800022                       # cumulative count of insts sent to commit
system.cpu1.int_regfile_reads                80645853                       # number of integer regfile reads
system.cpu1.int_regfile_writes               44466529                       # number of integer regfile writes
system.cpu1.ipc                              0.237667                       # IPC: Instructions Per Cycle
system.cpu1.ipc_total                        0.237667                       # IPC: Total IPC of All Threads
system.cpu1.iq.FU_type_0::No_OpClass          2036089      3.19%      3.19% # Type of FU issued
system.cpu1.iq.FU_type_0::IntAlu             38520240     60.34%     63.53% # Type of FU issued
system.cpu1.iq.FU_type_0::IntMult              248037      0.39%     63.92% # Type of FU issued
system.cpu1.iq.FU_type_0::IntDiv               493600      0.77%     64.69% # Type of FU issued
system.cpu1.iq.FU_type_0::FloatAdd                  0      0.00%     64.69% # Type of FU issued
system.cpu1.iq.FU_type_0::FloatCmp                  0      0.00%     64.69% # Type of FU issued
system.cpu1.iq.FU_type_0::FloatCvt                  0      0.00%     64.69% # Type of FU issued
system.cpu1.iq.FU_type_0::FloatMult                 0      0.00%     64.69% # Type of FU issued
system.cpu1.iq.FU_type_0::FloatMultAcc              0      0.00%     64.69% # Type of FU issued
system.cpu1.iq.FU_type_0::FloatDiv                  0      0.00%     64.69% # Type of FU issued
system.cpu1.iq.FU_type_0::FloatMisc                 0      0.00%     64.69% # Type of FU issued
system.cpu1.iq.FU_type_0::FloatSqrt                 0      0.00%     64.69% # Type of FU issued
system.cpu1.iq.FU_type_0::SimdAdd                   0      0.00%     64.69% # Type of FU issued
system.cpu1.iq.FU_type_0::SimdAddAcc                0      0.00%     64.69% # Type of FU issued
system.cpu1.iq.FU_type_0::SimdAlu                   0      0.00%     64.69% # Type of FU issued
system.cpu1.iq.FU_type_0::SimdCmp                   0      0.00%     64.69% # Type of FU issued
system.cpu1.iq.FU_type_0::SimdCvt                   0      0.00%     64.69% # Type of FU issued
system.cpu1.iq.FU_type_0::SimdMisc                  0      0.00%     64.69% # Type of FU issued
system.cpu1.iq.FU_type_0::SimdMult                  0      0.00%     64.69% # Type of FU issued
system.cpu1.iq.FU_type_0::SimdMultAcc               0      0.00%     64.69% # Type of FU issued
system.cpu1.iq.FU_type_0::SimdShift                 0      0.00%     64.69% # Type of FU issued
system.cpu1.iq.FU_type_0::SimdShiftAcc              0      0.00%     64.69% # Type of FU issued
system.cpu1.iq.FU_type_0::SimdDiv                   0      0.00%     64.69% # Type of FU issued
system.cpu1.iq.FU_type_0::SimdSqrt                  0      0.00%     64.69% # Type of FU issued
system.cpu1.iq.FU_type_0::SimdFloatAdd              0      0.00%     64.69% # Type of FU issued
system.cpu1.iq.FU_type_0::SimdFloatAlu              0      0.00%     64.69% # Type of FU issued
system.cpu1.iq.FU_type_0::SimdFloatCmp              0      0.00%     64.69% # Type of FU issued
system.cpu1.iq.FU_type_0::SimdFloatCvt              0      0.00%     64.69% # Type of FU issued
system.cpu1.iq.FU_type_0::SimdFloatDiv              0      0.00%     64.69% # Type of FU issued
system.cpu1.iq.FU_type_0::SimdFloatMisc             0      0.00%     64.69% # Type of FU issued
system.cpu1.iq.FU_type_0::SimdFloatMult             0      0.00%     64.69% # Type of FU issued
system.cpu1.iq.FU_type_0::SimdFloatMultAcc            0      0.00%     64.69% # Type of FU issued
system.cpu1.iq.FU_type_0::SimdFloatSqrt             0      0.00%     64.69% # Type of FU issued
system.cpu1.iq.FU_type_0::SimdReduceAdd             0      0.00%     64.69% # Type of FU issued
system.cpu1.iq.FU_type_0::SimdReduceAlu             0      0.00%     64.69% # Type of FU issued
system.cpu1.iq.FU_type_0::SimdReduceCmp             0      0.00%     64.69% # Type of FU issued
system.cpu1.iq.FU_type_0::SimdFloatReduceAdd            0      0.00%     64.69% # Type of FU issued
system.cpu1.iq.FU_type_0::SimdFloatReduceCmp            0      0.00%     64.69% # Type of FU issued
system.cpu1.iq.FU_type_0::SimdAes                   0      0.00%     64.69% # Type of FU issued
system.cpu1.iq.FU_type_0::SimdAesMix                0      0.00%     64.69% # Type of FU issued
system.cpu1.iq.FU_type_0::SimdSha1Hash              0      0.00%     64.69% # Type of FU issued
system.cpu1.iq.FU_type_0::SimdSha1Hash2             0      0.00%     64.69% # Type of FU issued
system.cpu1.iq.FU_type_0::SimdSha256Hash            0      0.00%     64.69% # Type of FU issued
system.cpu1.iq.FU_type_0::SimdSha256Hash2            0      0.00%     64.69% # Type of FU issued
system.cpu1.iq.FU_type_0::SimdShaSigma2             0      0.00%     64.69% # Type of FU issued
system.cpu1.iq.FU_type_0::SimdShaSigma3             0      0.00%     64.69% # Type of FU issued
system.cpu1.iq.FU_type_0::SimdPredAlu               0      0.00%     64.69% # Type of FU issued
system.cpu1.iq.FU_type_0::MemRead            16733403     26.21%     90.90% # Type of FU issued
system.cpu1.iq.FU_type_0::MemWrite            5806859      9.10%    100.00% # Type of FU issued
system.cpu1.iq.FU_type_0::FloatMemRead              0      0.00%    100.00% # Type of FU issued
system.cpu1.iq.FU_type_0::FloatMemWrite            12      0.00%    100.00% # Type of FU issued
system.cpu1.iq.FU_type_0::IprAccess                 0      0.00%    100.00% # Type of FU issued
system.cpu1.iq.FU_type_0::InstPrefetch              0      0.00%    100.00% # Type of FU issued
system.cpu1.iq.FU_type_0::total              63838240                       # Type of FU issued
system.cpu1.iq.fp_alu_accesses                     16                       # Number of floating point alu accesses
system.cpu1.iq.fp_inst_queue_reads                 28                       # Number of floating instruction queue reads
system.cpu1.iq.fp_inst_queue_wakeup_accesses           12                       # Number of floating instruction queue wakeup accesses
system.cpu1.iq.fp_inst_queue_writes                12                       # Number of floating instruction queue writes
system.cpu1.iq.fu_busy_cnt                    1963197                       # FU busy when requested
system.cpu1.iq.fu_busy_rate                  0.030753                       # FU busy rate (busy events/executed inst)
system.cpu1.iq.fu_full::No_OpClass                  0      0.00%      0.00% # attempts to use FU when none available
system.cpu1.iq.fu_full::IntAlu                 268422     13.67%     13.67% # attempts to use FU when none available
system.cpu1.iq.fu_full::IntMult                  4970      0.25%     13.93% # attempts to use FU when none available
system.cpu1.iq.fu_full::IntDiv                 452556     23.05%     36.98% # attempts to use FU when none available
system.cpu1.iq.fu_full::FloatAdd                    0      0.00%     36.98% # attempts to use FU when none available
system.cpu1.iq.fu_full::FloatCmp                    0      0.00%     36.98% # attempts to use FU when none available
system.cpu1.iq.fu_full::FloatCvt                    0      0.00%     36.98% # attempts to use FU when none available
system.cpu1.iq.fu_full::FloatMult                   0      0.00%     36.98% # attempts to use FU when none available
system.cpu1.iq.fu_full::FloatMultAcc                0      0.00%     36.98% # attempts to use FU when none available
system.cpu1.iq.fu_full::FloatDiv                    0      0.00%     36.98% # attempts to use FU when none available
system.cpu1.iq.fu_full::FloatMisc                   0      0.00%     36.98% # attempts to use FU when none available
system.cpu1.iq.fu_full::FloatSqrt                   0      0.00%     36.98% # attempts to use FU when none available
system.cpu1.iq.fu_full::SimdAdd                     0      0.00%     36.98% # attempts to use FU when none available
system.cpu1.iq.fu_full::SimdAddAcc                  0      0.00%     36.98% # attempts to use FU when none available
system.cpu1.iq.fu_full::SimdAlu                     0      0.00%     36.98% # attempts to use FU when none available
system.cpu1.iq.fu_full::SimdCmp                     0      0.00%     36.98% # attempts to use FU when none available
system.cpu1.iq.fu_full::SimdCvt                     0      0.00%     36.98% # attempts to use FU when none available
system.cpu1.iq.fu_full::SimdMisc                    0      0.00%     36.98% # attempts to use FU when none available
system.cpu1.iq.fu_full::SimdMult                    0      0.00%     36.98% # attempts to use FU when none available
system.cpu1.iq.fu_full::SimdMultAcc                 0      0.00%     36.98% # attempts to use FU when none available
system.cpu1.iq.fu_full::SimdShift                   0      0.00%     36.98% # attempts to use FU when none available
system.cpu1.iq.fu_full::SimdShiftAcc                0      0.00%     36.98% # attempts to use FU when none available
system.cpu1.iq.fu_full::SimdDiv                     0      0.00%     36.98% # attempts to use FU when none available
system.cpu1.iq.fu_full::SimdSqrt                    0      0.00%     36.98% # attempts to use FU when none available
system.cpu1.iq.fu_full::SimdFloatAdd                0      0.00%     36.98% # attempts to use FU when none available
system.cpu1.iq.fu_full::SimdFloatAlu                0      0.00%     36.98% # attempts to use FU when none available
system.cpu1.iq.fu_full::SimdFloatCmp                0      0.00%     36.98% # attempts to use FU when none available
system.cpu1.iq.fu_full::SimdFloatCvt                0      0.00%     36.98% # attempts to use FU when none available
system.cpu1.iq.fu_full::SimdFloatDiv                0      0.00%     36.98% # attempts to use FU when none available
system.cpu1.iq.fu_full::SimdFloatMisc               0      0.00%     36.98% # attempts to use FU when none available
system.cpu1.iq.fu_full::SimdFloatMult               0      0.00%     36.98% # attempts to use FU when none available
system.cpu1.iq.fu_full::SimdFloatMultAcc            0      0.00%     36.98% # attempts to use FU when none available
system.cpu1.iq.fu_full::SimdFloatSqrt               0      0.00%     36.98% # attempts to use FU when none available
system.cpu1.iq.fu_full::SimdReduceAdd               0      0.00%     36.98% # attempts to use FU when none available
system.cpu1.iq.fu_full::SimdReduceAlu               0      0.00%     36.98% # attempts to use FU when none available
system.cpu1.iq.fu_full::SimdReduceCmp               0      0.00%     36.98% # attempts to use FU when none available
system.cpu1.iq.fu_full::SimdFloatReduceAdd            0      0.00%     36.98% # attempts to use FU when none available
system.cpu1.iq.fu_full::SimdFloatReduceCmp            0      0.00%     36.98% # attempts to use FU when none available
system.cpu1.iq.fu_full::SimdAes                     0      0.00%     36.98% # attempts to use FU when none available
system.cpu1.iq.fu_full::SimdAesMix                  0      0.00%     36.98% # attempts to use FU when none available
system.cpu1.iq.fu_full::SimdSha1Hash                0      0.00%     36.98% # attempts to use FU when none available
system.cpu1.iq.fu_full::SimdSha1Hash2               0      0.00%     36.98% # attempts to use FU when none available
system.cpu1.iq.fu_full::SimdSha256Hash              0      0.00%     36.98% # attempts to use FU when none available
system.cpu1.iq.fu_full::SimdSha256Hash2             0      0.00%     36.98% # attempts to use FU when none available
system.cpu1.iq.fu_full::SimdShaSigma2               0      0.00%     36.98% # attempts to use FU when none available
system.cpu1.iq.fu_full::SimdShaSigma3               0      0.00%     36.98% # attempts to use FU when none available
system.cpu1.iq.fu_full::SimdPredAlu                 0      0.00%     36.98% # attempts to use FU when none available
system.cpu1.iq.fu_full::MemRead               1078983     54.96%     91.94% # attempts to use FU when none available
system.cpu1.iq.fu_full::MemWrite               158262      8.06%    100.00% # attempts to use FU when none available
[...]
system.cpu1.dcache.WriteReq_misses::total      2753997                       # number of WriteReq misses
system.cpu1.dcache.WriteReq_miss_latency::.cpu1.data 185696989229                       # number of WriteReq miss cycles
system.cpu1.dcache.WriteReq_miss_latency::total 185696989229                       # number of WriteReq miss cycles
system.cpu1.dcache.WriteReq_accesses::.cpu1.data     10234253                       # number of WriteReq accesses(hits+misses)
system.cpu1.dcache.WriteReq_accesses::total     10234253                       # number of WriteReq accesses(hits+misses)
system.cpu1.dcache.WriteReq_miss_rate::.cpu1.data     0.269096                       # miss rate for WriteReq accesses
system.cpu1.dcache.WriteReq_miss_rate::total     0.269096                       # miss rate for WriteReq accesses
system.cpu1.dcache.WriteReq_avg_miss_latency::.cpu1.data 67428.174115                       # average WriteReq miss latency
system.cpu1.dcache.WriteReq_avg_miss_latency::total 67428.174115                       # average WriteReq miss latency
system.cpu1.dcache.WriteReq_mshr_hits::.cpu1.data      1728252                       # number of WriteReq MSHR hits
system.cpu1.dcache.WriteReq_mshr_hits::total      1728252                       # number of WriteReq MSHR hits
system.cpu1.dcache.WriteReq_mshr_misses::.cpu1.data      1025745                       # number of WriteReq MSHR misses
system.cpu1.dcache.WriteReq_mshr_misses::total      1025745                       # number of WriteReq MSHR misses
system.cpu1.dcache.WriteReq_mshr_miss_latency::.cpu1.data  79999181694                       # number of WriteReq MSHR miss cycles
system.cpu1.dcache.WriteReq_mshr_miss_latency::total  79999181694                       # number of WriteReq MSHR miss cycles
system.cpu1.dcache.WriteReq_mshr_miss_rate::.cpu1.data     0.100227                       # mshr miss rate for WriteReq accesses
system.cpu1.dcache.WriteReq_mshr_miss_rate::total     0.100227                       # mshr miss rate for WriteReq accesses
system.cpu1.dcache.WriteReq_avg_mshr_miss_latency::.cpu1.data 77991.295784                       # average WriteReq mshr miss latency
system.cpu1.dcache.WriteReq_avg_mshr_miss_latency::total 77991.295784                       # average WriteReq mshr miss latency
system.cpu1.dcache.LoadLockedReq_hits::.cpu1.data       562148                       # number of LoadLockedReq hits
system.cpu1.dcache.LoadLockedReq_hits::total       562148                       # number of LoadLockedReq hits
system.cpu1.dcache.LoadLockedReq_misses::.cpu1.data        71899                       # number of LoadLockedReq misses
system.cpu1.dcache.LoadLockedReq_misses::total        71899                       # number of LoadLockedReq misses
system.cpu1.dcache.LoadLockedReq_miss_latency::.cpu1.data   3835763000                       # number of LoadLockedReq miss cycles
system.cpu1.dcache.LoadLockedReq_miss_latency::total   3835763000                       # number of LoadLockedReq miss cycles
system.cpu1.dcache.LoadLockedReq_accesses::.cpu1.data       634047                       # number of LoadLockedReq accesses(hits+misses)
system.cpu1.dcache.LoadLockedReq_accesses::total       634047                       # number of LoadLockedReq accesses(hits+misses)
system.cpu1.dcache.LoadLockedReq_miss_rate::.cpu1.data     0.113397                       # miss rate for LoadLockedReq accesses
system.cpu1.dcache.LoadLockedReq_miss_rate::total     0.113397                       # miss rate for LoadLockedReq accesses
system.cpu1.dcache.LoadLockedReq_avg_miss_latency::.cpu1.data 53349.323356                       # average LoadLockedReq miss latency
system.cpu1.dcache.LoadLockedReq_avg_miss_latency::total 53349.323356                       # average LoadLockedReq miss latency
system.cpu1.dcache.LoadLockedReq_mshr_hits::.cpu1.data        38310                       # number of LoadLockedReq MSHR hits
system.cpu1.dcache.LoadLockedReq_mshr_hits::total        38310                       # number of LoadLockedReq MSHR hits
system.cpu1.dcache.LoadLockedReq_mshr_misses::.cpu1.data        33589                       # number of LoadLockedReq MSHR misses
system.cpu1.dcache.LoadLockedReq_mshr_misses::total        33589                       # number of LoadLockedReq MSHR misses
system.cpu1.dcache.LoadLockedReq_mshr_miss_latency::.cpu1.data   2297029500                       # number of LoadLockedReq MSHR miss cycles
system.cpu1.dcache.LoadLockedReq_mshr_miss_latency::total   2297029500                       # number of LoadLockedReq MSHR miss cycles
system.cpu1.dcache.LoadLockedReq_mshr_miss_rate::.cpu1.data     0.052976                       # mshr miss rate for LoadLockedReq accesses
system.cpu1.dcache.LoadLockedReq_mshr_miss_rate::total     0.052976                       # mshr miss rate for LoadLockedReq accesses
system.cpu1.dcache.LoadLockedReq_avg_mshr_miss_latency::.cpu1.data 68386.361606                       # average LoadLockedReq mshr miss latency
system.cpu1.dcache.LoadLockedReq_avg_mshr_miss_latency::total 68386.361606                       # average LoadLockedReq mshr miss latency
system.cpu1.dcache.StoreCondReq_hits::.cpu1.data       544370                       # number of StoreCondReq hits
system.cpu1.dcache.StoreCondReq_hits::total       544370                       # number of StoreCondReq hits
system.cpu1.dcache.StoreCondReq_misses::.cpu1.data        44352                       # number of StoreCondReq misses
system.cpu1.dcache.StoreCondReq_misses::total        44352                       # number of StoreCondReq misses
system.cpu1.dcache.StoreCondReq_miss_latency::.cpu1.data    416694500                       # number of StoreCondReq miss cycles
system.cpu1.dcache.StoreCondReq_miss_latency::total    416694500                       # number of StoreCondReq miss cycles
system.cpu1.dcache.StoreCondReq_accesses::.cpu1.data       588722                       # number of StoreCondReq accesses(hits+misses)
system.cpu1.dcache.StoreCondReq_accesses::total       588722                       # number of StoreCondReq accesses(hits+misses)
system.cpu1.dcache.StoreCondReq_miss_rate::.cpu1.data     0.075336                       # miss rate for StoreCondReq accesses
system.cpu1.dcache.StoreCondReq_miss_rate::total     0.075336                       # miss rate for StoreCondReq accesses
system.cpu1.dcache.StoreCondReq_avg_miss_latency::.cpu1.data  9395.168200                       # average StoreCondReq miss latency
system.cpu1.dcache.StoreCondReq_avg_miss_latency::total  9395.168200                       # average StoreCondReq miss latency
system.cpu1.dcache.StoreCondReq_mshr_misses::.cpu1.data        44336                       # number of StoreCondReq MSHR misses
system.cpu1.dcache.StoreCondReq_mshr_misses::total        44336                       # number of StoreCondReq MSHR misses
system.cpu1.dcache.StoreCondReq_mshr_miss_latency::.cpu1.data    372557500                       # number of StoreCondReq MSHR miss cycles
system.cpu1.dcache.StoreCondReq_mshr_miss_latency::total    372557500                       # number of StoreCondReq MSHR miss cycles
system.cpu1.dcache.StoreCondReq_mshr_miss_rate::.cpu1.data     0.075309                       # mshr miss rate for StoreCondReq accesses
system.cpu1.dcache.StoreCondReq_mshr_miss_rate::total     0.075309                       # mshr miss rate for StoreCondReq accesses
system.cpu1.dcache.StoreCondReq_avg_mshr_miss_latency::.cpu1.data  8403.047185                       # average StoreCondReq mshr miss latency
system.cpu1.dcache.StoreCondReq_avg_mshr_miss_latency::total  8403.047185                       # average StoreCondReq mshr miss latency
system.cpu1.dcache.StoreCondFailReq_miss_latency::.cpu1.data      4566500                       # number of StoreCondFailReq miss cycles
system.cpu1.dcache.StoreCondFailReq_miss_latency::total      4566500                       # number of StoreCondFailReq miss cycles
system.cpu1.dcache.StoreCondFailReq_avg_miss_latency::.cpu1.data          inf                       # average StoreCondFailReq miss latency
system.cpu1.dcache.StoreCondFailReq_avg_miss_latency::total          inf                       # average StoreCondFailReq miss latency
system.cpu1.dcache.StoreCondFailReq_mshr_miss_latency::.cpu1.data      4367500                       # number of StoreCondFailReq MSHR miss cycles
system.cpu1.dcache.StoreCondFailReq_mshr_miss_latency::total      4367500                       # number of StoreCondFailReq MSHR miss cycles
system.cpu1.dcache.StoreCondFailReq_avg_mshr_miss_latency::.cpu1.data          inf                       # average StoreCondFailReq mshr miss latency
system.cpu1.dcache.StoreCondFailReq_avg_mshr_miss_latency::total          inf                       # average StoreCondFailReq mshr miss latency
system.cpu1.dcache.SwapReq_hits::.cpu1.data       110705                       # number of SwapReq hits
system.cpu1.dcache.SwapReq_hits::total         110705                       # number of SwapReq hits
system.cpu1.dcache.SwapReq_misses::.cpu1.data        48087                       # number of SwapReq misses
system.cpu1.dcache.SwapReq_misses::total        48087                       # number of SwapReq misses
system.cpu1.dcache.SwapReq_miss_latency::.cpu1.data    742878478                       # number of SwapReq miss cycles
system.cpu1.dcache.SwapReq_miss_latency::total    742878478                       # number of SwapReq miss cycles
system.cpu1.dcache.SwapReq_accesses::.cpu1.data       158792                       # number of SwapReq accesses(hits+misses)
system.cpu1.dcache.SwapReq_accesses::total       158792                       # number of SwapReq accesses(hits+misses)
system.cpu1.dcache.SwapReq_miss_rate::.cpu1.data     0.302830                       # miss rate for SwapReq accesses
system.cpu1.dcache.SwapReq_miss_rate::total     0.302830                       # miss rate for SwapReq accesses
system.cpu1.dcache.SwapReq_avg_miss_latency::.cpu1.data 15448.634309                       # average SwapReq miss latency
system.cpu1.dcache.SwapReq_avg_miss_latency::total 15448.634309                       # average SwapReq miss latency
system.cpu1.dcache.SwapReq_mshr_hits::.cpu1.data          133                       # number of SwapReq MSHR hits
system.cpu1.dcache.SwapReq_mshr_hits::total          133                       # number of SwapReq MSHR hits
system.cpu1.dcache.SwapReq_mshr_misses::.cpu1.data        47954                       # number of SwapReq MSHR misses
system.cpu1.dcache.SwapReq_mshr_misses::total        47954                       # number of SwapReq MSHR misses
system.cpu1.dcache.SwapReq_mshr_miss_latency::.cpu1.data    690494479                       # number of SwapReq MSHR miss cycles
system.cpu1.dcache.SwapReq_mshr_miss_latency::total    690494479                       # number of SwapReq MSHR miss cycles
system.cpu1.dcache.SwapReq_mshr_miss_rate::.cpu1.data     0.301993                       # mshr miss rate for SwapReq accesses
system.cpu1.dcache.SwapReq_mshr_miss_rate::total     0.301993                       # mshr miss rate for SwapReq accesses
system.cpu1.dcache.SwapReq_avg_mshr_miss_latency::.cpu1.data 14399.100784                       # average SwapReq mshr miss latency
system.cpu1.dcache.SwapReq_avg_mshr_miss_latency::total 14399.100784                       # average SwapReq mshr miss latency
system.cpu1.dcache.tags.pwrStateResidencyTicks::UNDEFINED 686874695000                       # Cumulative time (in ticks) in various power states
system.cpu1.dcache.tags.tagsinuse           31.754367                       # Cycle average of tags in use
system.cpu1.dcache.tags.total_refs           49842700                       # Total number of references to valid blocks.
system.cpu1.dcache.tags.sampled_refs          7758295                       # Sample count of references to valid blocks.
system.cpu1.dcache.tags.avg_refs             6.424440                       # Average number of references to valid blocks.
system.cpu1.dcache.tags.warmup_cycle                0                       # Cycle when the warmup percentage was hit.
system.cpu1.dcache.tags.occ_blocks::.cpu1.data    31.754367                       # Average occupied blocks per requestor
system.cpu1.dcache.tags.occ_percent::.cpu1.data     0.992324                       # Average percentage of cache occupancy
system.cpu1.dcache.tags.occ_percent::total     0.992324                       # Average percentage of cache occupancy
system.cpu1.dcache.tags.occ_task_id_blocks::1024           30                       # Occupied blocks per task id
system.cpu1.dcache.tags.age_task_id_blocks_1024::1            5                       # Occupied blocks per task id
system.cpu1.dcache.tags.age_task_id_blocks_1024::2           25                       # Occupied blocks per task id
system.cpu1.dcache.tags.occ_task_id_percent::1024     0.937500                       # Percentage of cache occupancy per task id
system.cpu1.dcache.tags.tag_accesses        125897584                       # Number of tag accesses
system.cpu1.dcache.tags.data_accesses       125897584                       # Number of data accesses
system.cpu_clk_domain.clock                       500                       # Clock period in ticks
system.tol2bus.pwrStateResidencyTicks::UNDEFINED 686874695000                       # Cumulative time (in ticks) in various power states
system.tol2bus.trans_dist::ReadResp          21521242                       # Transaction distribution
system.tol2bus.trans_dist::WritebackDirty      8979675                       # Transaction distribution
system.tol2bus.trans_dist::WritebackClean     18446402                       # Transaction distribution
system.tol2bus.trans_dist::CleanEvict        38560404                       # Transaction distribution
system.tol2bus.trans_dist::HardPFReq         12056295                       # Transaction distribution
system.tol2bus.trans_dist::HardPFResp               9                       # Transaction distribution
system.tol2bus.trans_dist::UpgradeReq          150485                       # Transaction distribution
system.tol2bus.trans_dist::SCUpgradeReq         84099                       # Transaction distribution
system.tol2bus.trans_dist::UpgradeResp         234584                       # Transaction distribution
system.tol2bus.trans_dist::SCUpgradeFailReq          232                       # Transaction distribution
system.tol2bus.trans_dist::UpgradeFailResp          232                       # Transaction distribution
system.tol2bus.trans_dist::ReadExReq          2007240                       # Transaction distribution
system.tol2bus.trans_dist::ReadExResp         2007243                       # Transaction distribution
system.tol2bus.trans_dist::ReadCleanReq       7406237                       # Transaction distribution
system.tol2bus.trans_dist::ReadSharedReq     14115004                       # Transaction distribution
system.tol2bus.trans_dist::InvalidateReq        15956                       # Transaction distribution
system.tol2bus.trans_dist::InvalidateResp        15956                       # Transaction distribution
system.tol2bus.pkt_count_system.cpu0.icache.mem_side::system.l2.cpu_side      8792035                       # Packet count per connected master and slave (bytes)
system.tol2bus.pkt_count_system.cpu0.dcache.mem_side::system.l2.cpu_side     24990869                       # Packet count per connected master and slave (bytes)
system.tol2bus.pkt_count_system.cpu1.icache.mem_side::system.l2.cpu_side     13424868                       # Packet count per connected master and slave (bytes)
system.tol2bus.pkt_count_system.cpu1.dcache.mem_side::system.l2.cpu_side     23061161                       # Packet count per connected master and slave (bytes)
system.tol2bus.pkt_count::total              70268933                       # Packet count per connected master and slave (bytes)
system.tol2bus.pkt_size_system.cpu0.icache.mem_side::system.l2.cpu_side    375105152                       # Cumulative packet size per connected master and slave (bytes)
system.tol2bus.pkt_size_system.cpu0.dcache.mem_side::system.l2.cpu_side   1051771328                       # Cumulative packet size per connected master and slave (bytes)
system.tol2bus.pkt_size_system.cpu1.icache.mem_side::system.l2.cpu_side    572777472                       # Cumulative packet size per connected master and slave (bytes)
system.tol2bus.pkt_size_system.cpu1.dcache.mem_side::system.l2.cpu_side    970568640                       # Cumulative packet size per connected master and slave (bytes)
system.tol2bus.pkt_size::total             2970222592                       # Cumulative packet size per connected master and slave (bytes)
system.tol2bus.snoops                        55332371                       # Total snoops (count)
system.tol2bus.snoopTraffic                 290885376                       # Total snoop traffic (bytes)
system.tol2bus.snoop_fanout::samples         78570738                       # Request fanout histogram
system.tol2bus.snoop_fanout::mean            0.299085                       # Request fanout histogram
system.tol2bus.snoop_fanout::stdev           0.501288                       # Request fanout histogram
system.tol2bus.snoop_fanout::underflows             0      0.00%      0.00% # Request fanout histogram
system.tol2bus.snoop_fanout::0               56707875     72.17%     72.17% # Request fanout histogram
system.tol2bus.snoop_fanout::1               20226403     25.74%     97.92% # Request fanout histogram
system.tol2bus.snoop_fanout::2                1636453      2.08%    100.00% # Request fanout histogram
system.tol2bus.snoop_fanout::3                      7      0.00%    100.00% # Request fanout histogram
system.tol2bus.snoop_fanout::4                      0      0.00%    100.00% # Request fanout histogram
system.tol2bus.snoop_fanout::5                      0      0.00%    100.00% # Request fanout histogram
system.tol2bus.snoop_fanout::6                      0      0.00%    100.00% # Request fanout histogram
system.tol2bus.snoop_fanout::7                      0      0.00%    100.00% # Request fanout histogram
system.tol2bus.snoop_fanout::8                      0      0.00%    100.00% # Request fanout histogram
system.tol2bus.snoop_fanout::overflows              0      0.00%    100.00% # Request fanout histogram
system.tol2bus.snoop_fanout::min_value              0                       # Request fanout histogram
system.tol2bus.snoop_fanout::max_value              3                       # Request fanout histogram
system.tol2bus.snoop_fanout::total           78570738                       # Request fanout histogram
system.tol2bus.reqLayer0.occupancy        46769188161                       # Layer occupancy (ticks)
system.tol2bus.reqLayer0.utilization              6.8                       # Layer utilization (%)
system.tol2bus.respLayer1.occupancy       12631882636                       # Layer occupancy (ticks)
system.tol2bus.respLayer1.utilization             1.8                       # Layer utilization (%)
system.tol2bus.respLayer0.occupancy        4404847313                       # Layer occupancy (ticks)
system.tol2bus.respLayer0.utilization             0.6                       # Layer utilization (%)
system.tol2bus.respLayer3.occupancy       11695720240                       # Layer occupancy (ticks)
system.tol2bus.respLayer3.utilization             1.7                       # Layer utilization (%)
system.tol2bus.respLayer2.occupancy        6720207711                       # Layer occupancy (ticks)
system.tol2bus.respLayer2.utilization             1.0                       # Layer utilization (%)
system.tol2bus.snoopLayer0.occupancy            13508                       # Layer occupancy (ticks)
system.tol2bus.snoopLayer0.utilization            0.0                       # Layer utilization (%)

---------- End Simulation Statistics   ----------
