
---------- Begin Simulation Statistics ----------
final_tick                               593560779000                       # Number of ticks from beginning of simulation (restored from checkpoints and never reset)
host_inst_rate                                  78905                       # Simulator instruction rate (inst/s)
host_mem_usage                                 702640                       # Number of bytes of host memory used
host_op_rate                                    79167                       # Simulator op (including micro ops) rate (op/s)
host_seconds                                  7763.32                       # Real time elapsed on the host
host_tick_rate                               76457105                       # Simulator tick rate (ticks/s)
sim_freq                                 1000000000000                       # Frequency of simulated ticks
sim_insts                                   612562037                       # Number of instructions simulated
sim_ops                                     614599661                       # Number of ops (including micro ops) simulated
sim_seconds                                  0.593561                       # Number of seconds simulated
sim_ticks                                593560779000                       # Number of ticks simulated
system.cpu0.branchPred.BTBCorrect                   0                       # Number of correct BTB predictions (this stat may not work properly.
system.cpu0.branchPred.BTBHitPct            75.697602                       # BTB Hit Percentage
system.cpu0.branchPred.BTBHits               78263241                       # Number of BTB hits
system.cpu0.branchPred.BTBLookups           103389326                       # Number of BTB lookups
system.cpu0.branchPred.RASInCorrect                 0                       # Number of incorrect RAS predictions.
system.cpu0.branchPred.condIncorrect          7243699                       # Number of conditional branches incorrect
system.cpu0.branchPred.condPredicted        123730231                       # Number of conditional branches predicted
system.cpu0.branchPred.indirectHits          12715226                       # Number of indirect target hits.
system.cpu0.branchPred.indirectLookups       12863052                       # Number of indirect predictor lookups.
system.cpu0.branchPred.indirectMisses          147826                       # Number of indirect misses.
system.cpu0.branchPred.lookups              159807374                       # Number of BP lookups
system.cpu0.branchPred.usedRAS                      0                       # Number of times the RAS was used to get a target.
system.cpu0.branchPredindirectMispredicted      1061712                       # Number of mispredicted indirect branches.
system.cpu0.commit.amos                       1018212                       # Number of atomic instructions committed
system.cpu0.commit.branchMispredicts          5095459                       # The number of times a branch was mispredicted
system.cpu0.commit.branches                 143210907                       # Number of branches committed
system.cpu0.commit.bw_lim_events             19557789                       # number cycles where commit BW limit reached
system.cpu0.commit.commitNonSpecStalls        3058596                       # The number of times commit has been forced to stall to communicate backwards
system.cpu0.commit.commitSquashedInsts       63397643                       # The number of squashed insts skipped by commit
system.cpu0.commit.committedInsts           580299273                       # Number of instructions committed
system.cpu0.commit.committedOps             581318798                       # Number of ops (including micro ops) committed
system.cpu0.commit.committed_per_cycle::samples   1052453079                       # Number of insts commited each cycle
system.cpu0.commit.committed_per_cycle::mean     0.552347                       # Number of insts commited each cycle
system.cpu0.commit.committed_per_cycle::stdev     1.375710                       # Number of insts commited each cycle
system.cpu0.commit.committed_per_cycle::underflows            0      0.00%      0.00% # Number of insts commited each cycle
system.cpu0.commit.committed_per_cycle::0    782114654     74.31%     74.31% # Number of insts commited each cycle
system.cpu0.commit.committed_per_cycle::1    161275110     15.32%     89.64% # Number of insts commited each cycle
system.cpu0.commit.committed_per_cycle::2     38133380      3.62%     93.26% # Number of insts commited each cycle
system.cpu0.commit.committed_per_cycle::3     33382255      3.17%     96.43% # Number of insts commited each cycle
system.cpu0.commit.committed_per_cycle::4     10847750      1.03%     97.46% # Number of insts commited each cycle
system.cpu0.commit.committed_per_cycle::5      2149402      0.20%     97.67% # Number of insts commited each cycle
system.cpu0.commit.committed_per_cycle::6      1919332      0.18%     97.85% # Number of insts commited each cycle
system.cpu0.commit.committed_per_cycle::7      3073407      0.29%     98.14% # Number of insts commited each cycle
system.cpu0.commit.committed_per_cycle::8     19557789      1.86%    100.00% # Number of insts commited each cycle
system.cpu0.commit.committed_per_cycle::overflows            0      0.00%    100.00% # Number of insts commited each cycle
system.cpu0.commit.committed_per_cycle::min_value            0                       # Number of insts commited each cycle
system.cpu0.commit.committed_per_cycle::max_value            8                       # Number of insts commited each cycle
system.cpu0.commit.committed_per_cycle::total   1052453079                       # Number of insts commited each cycle
system.cpu0.commit.fp_insts                        65                       # Number of committed floating point instructions.
system.cpu0.commit.function_calls            11887931                       # Number of function calls committed.
system.cpu0.commit.int_insts                561295104                       # Number of committed integer instructions.
system.cpu0.commit.loads                    179955569                       # Number of loads committed
system.cpu0.commit.membars                    2037626                       # Number of memory barriers committed
system.cpu0.commit.op_class_0::No_OpClass      2037635      0.35%      0.35% # Class of committed instruction
system.cpu0.commit.op_class_0::IntAlu       322239654     55.43%     55.78% # Class of committed instruction
system.cpu0.commit.op_class_0::IntMult        4135846      0.71%     56.49% # Class of committed instruction
system.cpu0.commit.op_class_0::IntDiv         1017777      0.18%     56.67% # Class of committed instruction
system.cpu0.commit.op_class_0::FloatAdd             0      0.00%     56.67% # Class of committed instruction
system.cpu0.commit.op_class_0::FloatCmp             6      0.00%     56.67% # Class of committed instruction
system.cpu0.commit.op_class_0::FloatCvt            16      0.00%     56.67% # Class of committed instruction
system.cpu0.commit.op_class_0::FloatMult            0      0.00%     56.67% # Class of committed instruction
system.cpu0.commit.op_class_0::FloatMultAcc            0      0.00%     56.67% # Class of committed instruction
system.cpu0.commit.op_class_0::FloatDiv             2      0.00%     56.67% # Class of committed instruction
system.cpu0.commit.op_class_0::FloatMisc            6      0.00%     56.67% # Class of committed instruction
system.cpu0.commit.op_class_0::FloatSqrt            0      0.00%     56.67% # Class of committed instruction
system.cpu0.commit.op_class_0::SimdAdd              0      0.00%     56.67% # Class of committed instruction
system.cpu0.commit.op_class_0::SimdAddAcc            0      0.00%     56.67% # Class of committed instruction
system.cpu0.commit.op_class_0::SimdAlu              0      0.00%     56.67% # Class of committed instruction
system.cpu0.commit.op_class_0::SimdCmp              0      0.00%     56.67% # Class of committed instruction
system.cpu0.commit.op_class_0::SimdCvt              0      0.00%     56.67% # Class of committed instruction
system.cpu0.commit.op_class_0::SimdMisc             0      0.00%     56.67% # Class of committed instruction
system.cpu0.commit.op_class_0::SimdMult             0      0.00%     56.67% # Class of committed instruction
system.cpu0.commit.op_class_0::SimdMultAcc            0      0.00%     56.67% # Class of committed instruction
system.cpu0.commit.op_class_0::SimdShift            0      0.00%     56.67% # Class of committed instruction
system.cpu0.commit.op_class_0::SimdShiftAcc            0      0.00%     56.67% # Class of committed instruction
system.cpu0.commit.op_class_0::SimdDiv              0      0.00%     56.67% # Class of committed instruction
system.cpu0.commit.op_class_0::SimdSqrt             0      0.00%     56.67% # Class of committed instruction
system.cpu0.commit.op_class_0::SimdFloatAdd            0      0.00%     56.67% # Class of committed instruction
system.cpu0.commit.op_class_0::SimdFloatAlu            0      0.00%     56.67% # Class of committed instruction
system.cpu0.commit.op_class_0::SimdFloatCmp            0      0.00%     56.67% # Class of committed instruction
system.cpu0.commit.op_class_0::SimdFloatCvt            0      0.00%     56.67% # Class of committed instruction
system.cpu0.commit.op_class_0::SimdFloatDiv            0      0.00%     56.67% # Class of committed instruction
system.cpu0.commit.op_class_0::SimdFloatMisc            0      0.00%     56.67% # Class of committed instruction
system.cpu0.commit.op_class_0::SimdFloatMult            0      0.00%     56.67% # Class of committed instruction
system.cpu0.commit.op_class_0::SimdFloatMultAcc            0      0.00%     56.67% # Class of committed instruction
system.cpu0.commit.op_class_0::SimdFloatSqrt            0      0.00%     56.67% # Class of committed instruction
system.cpu0.commit.op_class_0::SimdReduceAdd            0      0.00%     56.67% # Class of committed instruction
system.cpu0.commit.op_class_0::SimdReduceAlu            0      0.00%     56.67% # Class of committed instruction
system.cpu0.commit.op_class_0::SimdReduceCmp            0      0.00%     56.67% # Class of committed instruction
system.cpu0.commit.op_class_0::SimdFloatReduceAdd            0      0.00%     56.67% # Class of committed instruction
system.cpu0.commit.op_class_0::SimdFloatReduceCmp            0      0.00%     56.67% # Class of committed instruction
system.cpu0.commit.op_class_0::SimdAes              0      0.00%     56.67% # Class of committed instruction
system.cpu0.commit.op_class_0::SimdAesMix            0      0.00%     56.67% # Class of committed instruction
system.cpu0.commit.op_class_0::SimdSha1Hash            0      0.00%     56.67% # Class of committed instruction
system.cpu0.commit.op_class_0::SimdSha1Hash2            0      0.00%     56.67% # Class of committed instruction
system.cpu0.commit.op_class_0::SimdSha256Hash            0      0.00%     56.67% # Class of committed instruction
system.cpu0.commit.op_class_0::SimdSha256Hash2            0      0.00%     56.67% # Class of committed instruction
system.cpu0.commit.op_class_0::SimdShaSigma2            0      0.00%     56.67% # Class of committed instruction
system.cpu0.commit.op_class_0::SimdShaSigma3            0      0.00%     56.67% # Class of committed instruction
system.cpu0.commit.op_class_0::SimdPredAlu            0      0.00%     56.67% # Class of committed instruction
system.cpu0.commit.op_class_0::MemRead      180973769     31.13%     87.80% # Class of committed instruction
system.cpu0.commit.op_class_0::MemWrite      70914052     12.20%    100.00% # Class of committed instruction
system.cpu0.commit.op_class_0::FloatMemRead           12      0.00%    100.00% # Class of committed instruction
system.cpu0.commit.op_class_0::FloatMemWrite           23      0.00%    100.00% # Class of committed instruction
system.cpu0.commit.op_class_0::IprAccess            0      0.00%    100.00% # Class of committed instruction
system.cpu0.commit.op_class_0::InstPrefetch            0      0.00%    100.00% # Class of committed instruction
system.cpu0.commit.op_class_0::total        581318798                       # Class of committed instruction
system.cpu0.commit.refs                     251887856                       # Number of memory references committed
system.cpu0.commit.swp_count                        0                       # Number of s/w prefetches committed
system.cpu0.commit.vec_insts                        0                       # Number of committed Vector instructions.
system.cpu0.committedInsts                  580299273                       # Number of Instructions Simulated
system.cpu0.committedOps                    581318798                       # Number of Ops (including micro ops) Simulated
system.cpu0.cpi                              2.024380                       # CPI: Cycles Per Instruction
system.cpu0.cpi_total                        2.024380                       # CPI: Total CPI of All Threads
system.cpu0.decode.BlockedCycles            195324019                       # Number of cycles decode is blocked
system.cpu0.decode.BranchMispred              2157786                       # Number of times decode detected a branch misprediction
system.cpu0.decode.BranchResolved            77399017                       # Number of times decode resolved a branch
system.cpu0.decode.DecodedInsts             657833789                       # Number of instructions handled by decode
system.cpu0.decode.IdleCycles               400460921                       # Number of cycles decode is idle
system.cpu0.decode.RunCycles                458663256                       # Number of cycles decode is running
system.cpu0.decode.SquashCycles               5103499                       # Number of cycles decode is squashing
system.cpu0.decode.SquashedInsts              7127365                       # Number of squashed instructions handled by decode
system.cpu0.decode.UnblockCycles              3947077                       # Number of cycles decode is unblocking
system.cpu0.dtb.accesses                            0                       # DTB accesses
system.cpu0.dtb.hits                                0                       # DTB hits
system.cpu0.dtb.misses                              0                       # DTB misses
system.cpu0.dtb.read_accesses                       0                       # DTB read accesses
system.cpu0.dtb.read_hits                           0                       # DTB read hits
system.cpu0.dtb.read_misses                         0                       # DTB read misses
system.cpu0.dtb.write_accesses                      0                       # DTB write accesses
system.cpu0.dtb.write_hits                          0                       # DTB write hits
system.cpu0.dtb.write_misses                        0                       # DTB write misses
system.cpu0.fetch.Branches                  159807374                       # Number of branches that fetch encountered
system.cpu0.fetch.CacheLines                115001776                       # Number of cache lines fetched
system.cpu0.fetch.Cycles                    658869279                       # Number of cycles fetch has run and was not squashing or blocked
system.cpu0.fetch.IcacheSquashes              2755378                       # Number of outstanding Icache misses that were squashed
system.cpu0.fetch.IcacheWaitRetryStallCycles          190                       # Number of stall cycles due to full MSHR
system.cpu0.fetch.Insts                     669831081                       # Number of instructions fetch has processed
system.cpu0.fetch.MiscStallCycles                 248                       # Number of cycles fetch has spent waiting on interrupts, or bad addresses, or out of MSHRs
system.cpu0.fetch.PendingTrapStallCycles          287                       # Number of stall cycles due to pending traps
system.cpu0.fetch.SquashCycles               14503564                       # Number of cycles fetch has spent squashing
system.cpu0.fetch.branchRate                 0.136036                       # Number of branch fetches per cycle
system.cpu0.fetch.icacheStallCycles         397376986                       # Number of cycles fetch is stalled on an Icache miss
system.cpu0.fetch.predictedBranches          90978467                       # Number of branches that fetch has predicted taken
system.cpu0.fetch.rate                       0.570192                       # Number of inst fetches per cycle
system.cpu0.fetch.rateDist::samples        1063498772                       # Number of instructions fetched each cycle (Total)
system.cpu0.fetch.rateDist::mean             0.630797                       # Number of instructions fetched each cycle (Total)
system.cpu0.fetch.rateDist::stdev            0.879259                       # Number of instructions fetched each cycle (Total)
system.cpu0.fetch.rateDist::underflows              0      0.00%      0.00% # Number of instructions fetched each cycle (Total)
system.cpu0.fetch.rateDist::0               582492083     54.77%     54.77% # Number of instructions fetched each cycle (Total)
system.cpu0.fetch.rateDist::1               358980463     33.75%     88.53% # Number of instructions fetched each cycle (Total)
system.cpu0.fetch.rateDist::2                73271905      6.89%     95.42% # Number of instructions fetched each cycle (Total)
system.cpu0.fetch.rateDist::3                36960419      3.48%     98.89% # Number of instructions fetched each cycle (Total)
system.cpu0.fetch.rateDist::4                 6744764      0.63%     99.53% # Number of instructions fetched each cycle (Total)
system.cpu0.fetch.rateDist::5                 3857702      0.36%     99.89% # Number of instructions fetched each cycle (Total)
system.cpu0.fetch.rateDist::6                  165565      0.02%     99.90% # Number of instructions fetched each cycle (Total)
system.cpu0.fetch.rateDist::7                 1021964      0.10%    100.00% # Number of instructions fetched each cycle (Total)
system.cpu0.fetch.rateDist::8                    3907      0.00%    100.00% # Number of instructions fetched each cycle (Total)
system.cpu0.fetch.rateDist::overflows               0      0.00%    100.00% # Number of instructions fetched each cycle (Total)
system.cpu0.fetch.rateDist::min_value               0                       # Number of instructions fetched each cycle (Total)
system.cpu0.fetch.rateDist::max_value               8                       # Number of instructions fetched each cycle (Total)
system.cpu0.fetch.rateDist::total          1063498772                       # Number of instructions fetched each cycle (Total)
system.cpu0.fp_regfile_reads                       56                       # number of floating regfile reads
system.cpu0.fp_regfile_writes                      32                       # number of floating regfile writes
system.cpu0.idleCycles                      111247332                       # Total number of cycles that the CPU has spent unscheduled due to idling
system.cpu0.iew.branchMispredicts             5166651                       # Number of branch mispredicts detected at execute
system.cpu0.iew.exec_branches               150801946                       # Number of branches executed
system.cpu0.iew.exec_nop                            0                       # number of nop insts executed
system.cpu0.iew.exec_rate                    0.543218                       # Inst execution rate
system.cpu0.iew.exec_refs                   286418175                       # number of memory reference insts executed
system.cpu0.iew.exec_stores                  80047300                       # Number of stores executed
system.cpu0.iew.exec_swp                            0                       # number of swp insts executed
system.cpu0.iew.iewBlockCycles              158084721                       # Number of cycles IEW is blocking
system.cpu0.iew.iewDispLoadInsts            205971551                       # Number of dispatched load instructions
system.cpu0.iew.iewDispNonSpecInsts           1021623                       # Number of dispatched non-speculative instructions
system.cpu0.iew.iewDispSquashedInsts          2613497                       # Number of squashed instructions skipped by dispatch
system.cpu0.iew.iewDispStoreInsts            81026626                       # Number of dispatched store instructions
system.cpu0.iew.iewDispatchedInsts          644699225                       # Number of instructions dispatched to IQ
system.cpu0.iew.iewExecLoadInsts            206370875                       # Number of load instructions executed
system.cpu0.iew.iewExecSquashedInsts          3976520                       # Number of squashed instructions skipped in execute
system.cpu0.iew.iewExecutedInsts            638143462                       # Number of executed instructions
system.cpu0.iew.iewIQFullEvents               1046197                       # Number of times the IQ has become full, causing a stall
system.cpu0.iew.iewIdleCycles                       0                       # Number of cycles IEW is idle
system.cpu0.iew.iewLSQFullEvents              4020607                       # Number of times the LSQ has become full, causing a stall
system.cpu0.iew.iewSquashCycles               5103499                       # Number of cycles IEW is squashing
system.cpu0.iew.iewUnblockCycles              6231589                       # Number of cycles IEW is unblocking
system.cpu0.iew.lsq.thread0.blockedLoads            0                       # Number of blocked loads due to partial load-store forwarding
system.cpu0.iew.lsq.thread0.cacheBlocked        85437                       # Number of times an access to memory failed due to the cache being blocked
system.cpu0.iew.lsq.thread0.forwLoads        11237562                       # Number of loads that had data forwarded from stores
system.cpu0.iew.lsq.thread0.ignoredResponses        29064                       # Number of memory responses ignored because the instruction is squashed
system.cpu0.iew.lsq.thread0.invAddrLoads            0                       # Number of loads ignored due to an invalid address
system.cpu0.iew.lsq.thread0.invAddrSwpfs            0                       # Number of software prefetches ignored due to an invalid address
system.cpu0.iew.lsq.thread0.memOrderViolation         8297                       # Number of memory ordering violations
system.cpu0.iew.lsq.thread0.rescheduledLoads      4119717                       # Number of loads that were rescheduled
system.cpu0.iew.lsq.thread0.squashedLoads     26015982                       # Number of loads squashed
system.cpu0.iew.lsq.thread0.squashedStores      9094339                       # Number of stores squashed
system.cpu0.iew.memOrderViolationEvents          8297                       # Number of memory order violations
system.cpu0.iew.predictedNotTakenIncorrect       852091                       # Number of branches that were predicted not taken incorrectly
system.cpu0.iew.predictedTakenIncorrect       4314560                       # Number of branches that were predicted taken incorrectly
system.cpu0.iew.wb_consumers                270028619                       # num instructions consuming a value
system.cpu0.iew.wb_count                    630603401                       # cumulative count of insts written-back
system.cpu0.iew.wb_fanout                    0.852403                       # average fanout of values written-back
system.cpu0.iew.wb_producers                230173142                       # num instructions producing a value
system.cpu0.iew.wb_rate                      0.536800                       # insts written-back per cycle
system.cpu0.iew.wb_sent                     630696501                       # cumulative count of insts sent to commit
system.cpu0.int_regfile_reads               776685386                       # number of integer regfile reads
system.cpu0.int_regfile_writes              404423468                       # number of integer regfile writes
system.cpu0.ipc                              0.493978                       # IPC: Instructions Per Cycle
system.cpu0.ipc_total                        0.493978                       # IPC: Total IPC of All Threads
system.cpu0.iq.FU_type_0::No_OpClass          2038549      0.32%      0.32% # Type of FU issued
system.cpu0.iq.FU_type_0::IntAlu            347007358     54.04%     54.36% # Type of FU issued
system.cpu0.iq.FU_type_0::IntMult             4139437      0.64%     55.00% # Type of FU issued
system.cpu0.iq.FU_type_0::IntDiv              1018078      0.16%     55.16% # Type of FU issued
system.cpu0.iq.FU_type_0::FloatAdd                  0      0.00%     55.16% # Type of FU issued
system.cpu0.iq.FU_type_0::FloatCmp                  6      0.00%     55.16% # Type of FU issued
system.cpu0.iq.FU_type_0::FloatCvt                 16      0.00%     55.16% # Type of FU issued
system.cpu0.iq.FU_type_0::FloatMult                 0      0.00%     55.16% # Type of FU issued
system.cpu0.iq.FU_type_0::FloatMultAcc              0      0.00%     55.16% # Type of FU issued
system.cpu0.iq.FU_type_0::FloatDiv                  2      0.00%     55.16% # Type of FU issued
system.cpu0.iq.FU_type_0::FloatMisc                 6      0.00%     55.16% # Type of FU issued
system.cpu0.iq.FU_type_0::FloatSqrt                 0      0.00%     55.16% # Type of FU issued
system.cpu0.iq.FU_type_0::SimdAdd                   0      0.00%     55.16% # Type of FU issued
system.cpu0.iq.FU_type_0::SimdAddAcc                0      0.00%     55.16% # Type of FU issued
system.cpu0.iq.FU_type_0::SimdAlu                   0      0.00%     55.16% # Type of FU issued
system.cpu0.iq.FU_type_0::SimdCmp                   0      0.00%     55.16% # Type of FU issued
system.cpu0.iq.FU_type_0::SimdCvt                   0      0.00%     55.16% # Type of FU issued
system.cpu0.iq.FU_type_0::SimdMisc                  0      0.00%     55.16% # Type of FU issued
system.cpu0.iq.FU_type_0::SimdMult                  0      0.00%     55.16% # Type of FU issued
system.cpu0.iq.FU_type_0::SimdMultAcc               0      0.00%     55.16% # Type of FU issued
system.cpu0.iq.FU_type_0::SimdShift                 0      0.00%     55.16% # Type of FU issued
system.cpu0.iq.FU_type_0::SimdShiftAcc              0      0.00%     55.16% # Type of FU issued
system.cpu0.iq.FU_type_0::SimdDiv                   0      0.00%     55.16% # Type of FU issued
system.cpu0.iq.FU_type_0::SimdSqrt                  0      0.00%     55.16% # Type of FU issued
system.cpu0.iq.FU_type_0::SimdFloatAdd              0      0.00%     55.16% # Type of FU issued
system.cpu0.iq.FU_type_0::SimdFloatAlu              0      0.00%     55.16% # Type of FU issued
system.cpu0.iq.FU_type_0::SimdFloatCmp              0      0.00%     55.16% # Type of FU issued
system.cpu0.iq.FU_type_0::SimdFloatCvt              0      0.00%     55.16% # Type of FU issued
system.cpu0.iq.FU_type_0::SimdFloatDiv              0      0.00%     55.16% # Type of FU issued
system.cpu0.iq.FU_type_0::SimdFloatMisc             0      0.00%     55.16% # Type of FU issued
system.cpu0.iq.FU_type_0::SimdFloatMult             0      0.00%     55.16% # Type of FU issued
system.cpu0.iq.FU_type_0::SimdFloatMultAcc            0      0.00%     55.16% # Type of FU issued
system.cpu0.iq.FU_type_0::SimdFloatSqrt             0      0.00%     55.16% # Type of FU issued
system.cpu0.iq.FU_type_0::SimdReduceAdd             0      0.00%     55.16% # Type of FU issued
system.cpu0.iq.FU_type_0::SimdReduceAlu             0      0.00%     55.16% # Type of FU issued
system.cpu0.iq.FU_type_0::SimdReduceCmp             0      0.00%     55.16% # Type of FU issued
system.cpu0.iq.FU_type_0::SimdFloatReduceAdd            0      0.00%     55.16% # Type of FU issued
system.cpu0.iq.FU_type_0::SimdFloatReduceCmp            0      0.00%     55.16% # Type of FU issued
system.cpu0.iq.FU_type_0::SimdAes                   0      0.00%     55.16% # Type of FU issued
system.cpu0.iq.FU_type_0::SimdAesMix                0      0.00%     55.16% # Type of FU issued
system.cpu0.iq.FU_type_0::SimdSha1Hash              0      0.00%     55.16% # Type of FU issued
system.cpu0.iq.FU_type_0::SimdSha1Hash2             0      0.00%     55.16% # Type of FU issued
system.cpu0.iq.FU_type_0::SimdSha256Hash            0      0.00%     55.16% # Type of FU issued
system.cpu0.iq.FU_type_0::SimdSha256Hash2            0      0.00%     55.16% # Type of FU issued
system.cpu0.iq.FU_type_0::SimdShaSigma2             0      0.00%     55.16% # Type of FU issued
system.cpu0.iq.FU_type_0::SimdShaSigma3             0      0.00%     55.16% # Type of FU issued
system.cpu0.iq.FU_type_0::SimdPredAlu               0      0.00%     55.16% # Type of FU issued
system.cpu0.iq.FU_type_0::MemRead           208608425     32.49%     87.65% # Type of FU issued
system.cpu0.iq.FU_type_0::MemWrite           79308069     12.35%    100.00% # Type of FU issued
system.cpu0.iq.FU_type_0::FloatMemRead             14      0.00%    100.00% # Type of FU issued
system.cpu0.iq.FU_type_0::FloatMemWrite            23      0.00%    100.00% # Type of FU issued
system.cpu0.iq.FU_type_0::IprAccess                 0      0.00%    100.00% # Type of FU issued
system.cpu0.iq.FU_type_0::InstPrefetch              0      0.00%    100.00% # Type of FU issued
system.cpu0.iq.FU_type_0::total             642119983                       # Type of FU issued
system.cpu0.iq.fp_alu_accesses                     70                       # Number of floating point alu accesses
system.cpu0.iq.fp_inst_queue_reads                137                       # Number of floating instruction queue reads
system.cpu0.iq.fp_inst_queue_wakeup_accesses           66                       # Number of floating instruction queue wakeup accesses
system.cpu0.iq.fp_inst_queue_writes                67                       # Number of floating instruction queue writes
system.cpu0.iq.fu_busy_cnt                    1309907                       # FU busy when requested
system.cpu0.iq.fu_busy_rate                  0.002040                       # FU busy rate (busy events/executed inst)
system.cpu0.iq.fu_full::No_OpClass                  0      0.00%      0.00% # attempts to use FU when none available
system.cpu0.iq.fu_full::IntAlu                 239006     18.25%     18.25% # attempts to use FU when none available
system.cpu0.iq.fu_full::IntMult                     0      0.00%     18.25% # attempts to use FU when none available
system.cpu0.iq.fu_full::IntDiv                      0      0.00%     18.25% # attempts to use FU when none available
system.cpu0.iq.fu_full::FloatAdd                    0      0.00%     18.25% # attempts to use FU when none available
system.cpu0.iq.fu_full::FloatCmp                    0      0.00%     18.25% # attempts to use FU when none available
system.cpu0.iq.fu_full::FloatCvt                    0      0.00%     18.25% # attempts to use FU when none available
system.cpu0.iq.fu_full::FloatMult                   0      0.00%     18.25% # attempts to use FU when none available
system.cpu0.iq.fu_full::FloatMultAcc                0      0.00%     18.25% # attempts to use FU when none available
system.cpu0.iq.fu_full::FloatDiv                    0      0.00%     18.25% # attempts to use FU when none available
system.cpu0.iq.fu_full::FloatMisc                   0      0.00%     18.25% # attempts to use FU when none available
system.cpu0.iq.fu_full::FloatSqrt                   0      0.00%     18.25% # attempts to use FU when none available
system.cpu0.iq.fu_full::SimdAdd                     0      0.00%     18.25% # attempts to use FU when none available
system.cpu0.iq.fu_full::SimdAddAcc                  0      0.00%     18.25% # attempts to use FU when none available
system.cpu0.iq.fu_full::SimdAlu                     0      0.00%     18.25% # attempts to use FU when none available
system.cpu0.iq.fu_full::SimdCmp                     0      0.00%     18.25% # attempts to use FU when none available
system.cpu0.iq.fu_full::SimdCvt                     0      0.00%     18.25% # attempts to use FU when none available
system.cpu0.iq.fu_full::SimdMisc                    0      0.00%     18.25% # attempts to use FU when none available
system.cpu0.iq.fu_full::SimdMult                    0      0.00%     18.25% # attempts to use FU when none available
system.cpu0.iq.fu_full::SimdMultAcc                 0      0.00%     18.25% # attempts to use FU when none available
system.cpu0.iq.fu_full::SimdShift                   0      0.00%     18.25% # attempts to use FU when none available
system.cpu0.iq.fu_full::SimdShiftAcc                0      0.00%     18.25% # attempts to use FU when none available
system.cpu0.iq.fu_full::SimdDiv                     0      0.00%     18.25% # attempts to use FU when none available
system.cpu0.iq.fu_full::SimdSqrt                    0      0.00%     18.25% # attempts to use FU when none available
system.cpu0.iq.fu_full::SimdFloatAdd                0      0.00%     18.25% # attempts to use FU when none available
system.cpu0.iq.fu_full::SimdFloatAlu                0      0.00%     18.25% # attempts to use FU when none available
system.cpu0.iq.fu_full::SimdFloatCmp                0      0.00%     18.25% # attempts to use FU when none available
system.cpu0.iq.fu_full::SimdFloatCvt                0      0.00%     18.25% # attempts to use FU when none available
system.cpu0.iq.fu_full::SimdFloatDiv                0      0.00%     18.25% # attempts to use FU when none available
system.cpu0.iq.fu_full::SimdFloatMisc               0      0.00%     18.25% # attempts to use FU when none available
system.cpu0.iq.fu_full::SimdFloatMult               0      0.00%     18.25% # attempts to use FU when none available
system.cpu0.iq.fu_full::SimdFloatMultAcc            0      0.00%     18.25% # attempts to use FU when none available
system.cpu0.iq.fu_full::SimdFloatSqrt               0      0.00%     18.25% # attempts to use FU when none available
system.cpu0.iq.fu_full::SimdReduceAdd               0      0.00%     18.25% # attempts to use FU when none available
system.cpu0.iq.fu_full::SimdReduceAlu               0      0.00%     18.25% # attempts to use FU when none available
system.cpu0.iq.fu_full::SimdReduceCmp               0      0.00%     18.25% # attempts to use FU when none available
system.cpu0.iq.fu_full::SimdFloatReduceAdd            0      0.00%     18.25% # attempts to use FU when none available
system.cpu0.iq.fu_full::SimdFloatReduceCmp            0      0.00%     18.25% # attempts to use FU when none available
system.cpu0.iq.fu_full::SimdAes                     0      0.00%     18.25% # attempts to use FU when none available
system.cpu0.iq.fu_full::SimdAesMix                  0      0.00%     18.25% # attempts to use FU when none available
system.cpu0.iq.fu_full::SimdSha1Hash                0      0.00%     18.25% # attempts to use FU when none available
system.cpu0.iq.fu_full::SimdSha1Hash2               0      0.00%     18.25% # attempts to use FU when none available
system.cpu0.iq.fu_full::SimdSha256Hash              0      0.00%     18.25% # attempts to use FU when none available
system.cpu0.iq.fu_full::SimdSha256Hash2             0      0.00%     18.25% # attempts to use FU when none available
system.cpu0.iq.fu_full::SimdShaSigma2               0      0.00%     18.25% # attempts to use FU when none available
system.cpu0.iq.fu_full::SimdShaSigma3               0      0.00%     18.25% # attempts to use FU when none available
system.cpu0.iq.fu_full::SimdPredAlu                 0      0.00%     18.25% # attempts to use FU when none available
system.cpu0.iq.fu_full::MemRead                922943     70.46%     88.70% # attempts to use FU when none available
system.cpu0.iq.fu_full::MemWrite               147955     11.30%    100.00% # attempts to use FU when none available
system.cpu0.iq.fu_full::FloatMemRead                0      0.00%    100.00% # attempts to use FU when none available
system.cpu0.iq.fu_full::FloatMemWrite               3      0.00%    100.00% # attempts to use FU when none available
system.cpu0.iq.fu_full::IprAccess                   0      0.00%    100.00% # attempts to use FU when none available
system.cpu0.iq.fu_full::InstPrefetch                0      0.00%    100.00% # attempts to use FU when none available
system.cpu0.iq.int_alu_accesses             641391271                       # Number of integer alu accesses
system.cpu0.iq.int_inst_queue_reads        2349137182                       # Number of integer instruction queue reads
system.cpu0.iq.int_inst_queue_wakeup_accesses    630603335                       # Number of integer instruction queue wakeup accesses
system.cpu0.iq.int_inst_queue_writes        708087052                       # Number of integer instruction queue writes
system.cpu0.iq.iqInstsAdded                 641639745                       # Number of instructions added to the IQ (excludes non-spec)
system.cpu0.iq.iqInstsIssued                642119983                       # Number of instructions issued
system.cpu0.iq.iqNonSpecInstsAdded            3059480                       # Number of non-speculative instructions added to the IQ
system.cpu0.iq.iqSquashedInstsExamined       63380423                       # Number of squashed instructions iterated over during squash; mainly for profiling
system.cpu0.iq.iqSquashedInstsIssued            88675                       # Number of squashed instructions issued
system.cpu0.iq.iqSquashedNonSpecRemoved           884                       # Number of squashed non-spec instructions that were removed
system.cpu0.iq.iqSquashedOperandsExamined     13959191                       # Number of squashed operands that are examined and possibly removed from graph
system.cpu0.iq.issued_per_cycle::samples   1063498772                       # Number of insts issued each cycle
system.cpu0.iq.issued_per_cycle::mean        0.603781                       # Number of insts issued each cycle
system.cpu0.iq.issued_per_cycle::stdev       0.816939                       # Number of insts issued each cycle
system.cpu0.iq.issued_per_cycle::underflows            0      0.00%      0.00% # Number of insts issued each cycle
system.cpu0.iq.issued_per_cycle::0          598800964     56.30%     56.30% # Number of insts issued each cycle
system.cpu0.iq.issued_per_cycle::1          323538093     30.42%     86.73% # Number of insts issued each cycle
system.cpu0.iq.issued_per_cycle::2          114338391     10.75%     97.48% # Number of insts issued each cycle
system.cpu0.iq.issued_per_cycle::3           20599226      1.94%     99.41% # Number of insts issued each cycle
system.cpu0.iq.issued_per_cycle::4            3956299      0.37%     99.79% # Number of insts issued each cycle
system.cpu0.iq.issued_per_cycle::5            1612026      0.15%     99.94% # Number of insts issued each cycle
system.cpu0.iq.issued_per_cycle::6             430867      0.04%     99.98% # Number of insts issued each cycle
system.cpu0.iq.issued_per_cycle::7             146346      0.01%     99.99% # Number of insts issued each cycle
system.cpu0.iq.issued_per_cycle::8              76560      0.01%    100.00% # Number of insts issued each cycle
system.cpu0.iq.issued_per_cycle::overflows            0      0.00%    100.00% # Number of insts issued each cycle
system.cpu0.iq.issued_per_cycle::min_value            0                       # Number of insts issued each cycle
system.cpu0.iq.issued_per_cycle::max_value            8                       # Number of insts issued each cycle
system.cpu0.iq.issued_per_cycle::total     1063498772                       # Number of insts issued each cycle
system.cpu0.iq.rate                          0.546603                       # Inst issue rate
system.cpu0.iq.vec_alu_accesses                     0                       # Number of vector alu accesses
system.cpu0.iq.vec_inst_queue_reads                 0                       # Number of vector instruction queue reads
system.cpu0.iq.vec_inst_queue_wakeup_accesses            0                       # Number of vector instruction queue wakeup accesses
system.cpu0.iq.vec_inst_queue_writes                0                       # Number of vector instruction queue writes
system.cpu0.itb.accesses                            0                       # DTB accesses
system.cpu0.itb.hits                                0                       # DTB hits
system.cpu0.itb.misses                              0                       # DTB misses
system.cpu0.itb.read_accesses                       0                       # DTB read accesses
system.cpu0.itb.read_hits                           0                       # DTB read hits
system.cpu0.itb.read_misses                         0                       # DTB read misses
system.cpu0.itb.write_accesses                      0                       # DTB write accesses
system.cpu0.itb.write_hits                          0                       # DTB write hits
system.cpu0.itb.write_misses                        0                       # DTB write misses
system.cpu0.memDep0.conflictingLoads          9598831                       # Number of conflicting loads.
system.cpu0.memDep0.conflictingStores         2016058                       # Number of conflicting stores.
system.cpu0.memDep0.insertedLoads           205971551                       # Number of loads inserted to the mem dependence unit.
system.cpu0.memDep0.insertedStores           81026626                       # Number of stores inserted to the mem dependence unit.
system.cpu0.misc_regfile_reads                    909                       # number of misc regfile reads
system.cpu0.misc_regfile_writes                    30                       # number of misc regfile writes
system.cpu0.numCycles                      1174746104                       # number of cpu cycles simulated
system.cpu0.numWorkItemsCompleted                   0                       # number of work items this cpu completed
system.cpu0.numWorkItemsStarted                     0                       # number of work items this cpu started
system.cpu0.quiesceCycles                    12376286                       # Total number of cycles that CPU has spent quiesced or waiting for an interrupt
system.cpu0.rename.BlockCycles              172128661                       # Number of cycles rename is blocking
system.cpu0.rename.CommittedMaps            370578658                       # Number of HB maps that are committed
system.cpu0.rename.IQFullEvents               6729137                       # Number of times rename has blocked due to IQ full
system.cpu0.rename.IdleCycles               406261029                       # Number of cycles rename is idle
system.cpu0.rename.LQFullEvents               7580781                       # Number of times rename has blocked due to LQ full
system.cpu0.rename.ROBFullEvents                19928                       # Number of times rename has blocked due to ROB full
system.cpu0.rename.RenameLookups            795111872                       # Number of register rename lookups that rename has made
system.cpu0.rename.RenamedInsts             652286637                       # Number of instructions processed by rename
system.cpu0.rename.RenamedOperands          420256160                       # Number of destination operands rename has renamed
system.cpu0.rename.RunCycles                456233136                       # Number of cycles rename is running
system.cpu0.rename.SQFullEvents               9073672                       # Number of times rename has blocked due to SQ full
system.cpu0.rename.SquashCycles               5103499                       # Number of cycles rename is squashing
system.cpu0.rename.UnblockCycles             23620866                       # Number of cycles rename is unblocking
system.cpu0.rename.UndoneMaps                49677497                       # Number of HB maps that are undone due to squashing
system.cpu0.rename.fp_rename_lookups               56                       # Number of floating rename lookups
system.cpu0.rename.int_rename_lookups       795111816                       # Number of integer rename lookups
system.cpu0.rename.serializeStallCycles        151581                       # count of cycles rename stalled for serializing inst
system.cpu0.rename.serializingInsts              2892                       # count of serializing insts renamed
system.cpu0.rename.skidInsts                 14154003                       # count of insts added to the skid buffer
system.cpu0.rename.tempSerializingInsts          2892                       # count of temporary serializing insts renamed
system.cpu0.rob.rob_reads                  1677600577                       # The number of ROB reads
system.cpu0.rob.rob_writes                 1300492041                       # The number of ROB writes
system.cpu0.timesIdled                       12173475                       # Number of times that the entire CPU went into an idle state and unscheduled itself
system.cpu0.workload.numSyscalls                  865                       # Number of system calls
system.cpu1.branchPred.BTBCorrect                   0                       # Number of correct BTB predictions (this stat may not work properly.
system.cpu1.branchPred.BTBHitPct            73.954217                       # BTB Hit Percentage
system.cpu1.branchPred.BTBHits                4557294                       # Number of BTB hits
system.cpu1.branchPred.BTBLookups             6162318                       # Number of BTB lookups
system.cpu1.branchPred.RASInCorrect                 0                       # Number of incorrect RAS predictions.
system.cpu1.branchPred.condIncorrect           814367                       # Number of conditional branches incorrect
system.cpu1.branchPred.condPredicted          7808092                       # Number of conditional branches predicted
system.cpu1.branchPred.indirectHits            259978                       # Number of indirect target hits.
system.cpu1.branchPred.indirectLookups         401336                       # Number of indirect predictor lookups.
system.cpu1.branchPred.indirectMisses          141358                       # Number of indirect misses.
system.cpu1.branchPred.lookups                8795605                       # Number of BP lookups
system.cpu1.branchPred.usedRAS                      0                       # Number of times the RAS was used to get a target.
system.cpu1.branchPredindirectMispredicted         3191                       # Number of mispredicted indirect branches.
system.cpu1.commit.amos                       1017927                       # Number of atomic instructions committed
system.cpu1.commit.branchMispredicts           483440                       # The number of times a branch was mispredicted
system.cpu1.commit.branches                   7095443                       # Number of branches committed
system.cpu1.commit.bw_lim_events               818943                       # number cycles where commit BW limit reached
system.cpu1.commit.commitNonSpecStalls        3054451                       # The number of times commit has been forced to stall to communicate backwards
system.cpu1.commit.commitSquashedInsts        4444177                       # The number of squashed insts skipped by commit
system.cpu1.commit.committedInsts            32262764                       # Number of instructions committed
system.cpu1.commit.committedOps              33280863                       # Number of ops (including micro ops) committed
system.cpu1.commit.committed_per_cycle::samples    201012358                       # Number of insts commited each cycle
system.cpu1.commit.committed_per_cycle::mean     0.165566                       # Number of insts commited each cycle
system.cpu1.commit.committed_per_cycle::stdev     0.809964                       # Number of insts commited each cycle
system.cpu1.commit.committed_per_cycle::underflows            0      0.00%      0.00% # Number of insts commited each cycle
system.cpu1.commit.committed_per_cycle::0    187268183     93.16%     93.16% # Number of insts commited each cycle
system.cpu1.commit.committed_per_cycle::1      6909095      3.44%     96.60% # Number of insts commited each cycle
system.cpu1.commit.committed_per_cycle::2      2269588      1.13%     97.73% # Number of insts commited each cycle
system.cpu1.commit.committed_per_cycle::3      2017044      1.00%     98.73% # Number of insts commited each cycle
system.cpu1.commit.committed_per_cycle::4       519669      0.26%     98.99% # Number of insts commited each cycle
system.cpu1.commit.committed_per_cycle::5       180845      0.09%     99.08% # Number of insts commited each cycle
system.cpu1.commit.committed_per_cycle::6       955922      0.48%     99.56% # Number of insts commited each cycle
system.cpu1.commit.committed_per_cycle::7        73069      0.04%     99.59% # Number of insts commited each cycle
system.cpu1.commit.committed_per_cycle::8       818943      0.41%    100.00% # Number of insts commited each cycle
system.cpu1.commit.committed_per_cycle::overflows            0      0.00%    100.00% # Number of insts commited each cycle
system.cpu1.commit.committed_per_cycle::min_value            0                       # Number of insts commited each cycle
system.cpu1.commit.committed_per_cycle::max_value            8                       # Number of insts commited each cycle
system.cpu1.commit.committed_per_cycle::total    201012358                       # Number of insts commited each cycle
system.cpu1.commit.fp_insts                        12                       # Number of committed floating point instructions.
system.cpu1.commit.function_calls              320812                       # Number of function calls committed.
system.cpu1.commit.int_insts                 31047565                       # Number of committed integer instructions.
system.cpu1.commit.loads                      9248498                       # Number of loads committed
system.cpu1.commit.membars                    2035969                       # Number of memory barriers committed
system.cpu1.commit.op_class_0::No_OpClass      2035969      6.12%      6.12% # Class of committed instruction
system.cpu1.commit.op_class_0::IntAlu        19082514     57.34%     63.46% # Class of committed instruction
system.cpu1.commit.op_class_0::IntMult             42      0.00%     63.46% # Class of committed instruction
system.cpu1.commit.op_class_0::IntDiv              84      0.00%     63.46% # Class of committed instruction
system.cpu1.commit.op_class_0::FloatAdd             0      0.00%     63.46% # Class of committed instruction
system.cpu1.commit.op_class_0::FloatCmp             0      0.00%     63.46% # Class of committed instruction
system.cpu1.commit.op_class_0::FloatCvt             0      0.00%     63.46% # Class of committed instruction
system.cpu1.commit.op_class_0::FloatMult            0      0.00%     63.46% # Class of committed instruction
system.cpu1.commit.op_class_0::FloatMultAcc            0      0.00%     63.46% # Class of committed instruction
system.cpu1.commit.op_class_0::FloatDiv             0      0.00%     63.46% # Class of committed instruction
system.cpu1.commit.op_class_0::FloatMisc            0      0.00%     63.46% # Class of committed instruction
system.cpu1.commit.op_class_0::FloatSqrt            0      0.00%     63.46% # Class of committed instruction
system.cpu1.commit.op_class_0::SimdAdd              0      0.00%     63.46% # Class of committed instruction
system.cpu1.commit.op_class_0::SimdAddAcc            0      0.00%     63.46% # Class of committed instruction
system.cpu1.commit.op_class_0::SimdAlu              0      0.00%     63.46% # Class of committed instruction
system.cpu1.commit.op_class_0::SimdCmp              0      0.00%     63.46% # Class of committed instruction
system.cpu1.commit.op_class_0::SimdCvt              0      0.00%     63.46% # Class of committed instruction
system.cpu1.commit.op_class_0::SimdMisc             0      0.00%     63.46% # Class of committed instruction
system.cpu1.commit.op_class_0::SimdMult             0      0.00%     63.46% # Class of committed instruction
system.cpu1.commit.op_class_0::SimdMultAcc            0      0.00%     63.46% # Class of committed instruction
system.cpu1.commit.op_class_0::SimdShift            0      0.00%     63.46% # Class of committed instruction
system.cpu1.commit.op_class_0::SimdShiftAcc            0      0.00%     63.46% # Class of committed instruction
system.cpu1.commit.op_class_0::SimdDiv              0      0.00%     63.46% # Class of committed instruction
system.cpu1.commit.op_class_0::SimdSqrt             0      0.00%     63.46% # Class of committed instruction
system.cpu1.commit.op_class_0::SimdFloatAdd            0      0.00%     63.46% # Class of committed instruction
system.cpu1.commit.op_class_0::SimdFloatAlu            0      0.00%     63.46% # Class of committed instruction
system.cpu1.commit.op_class_0::SimdFloatCmp            0      0.00%     63.46% # Class of committed instruction
system.cpu1.commit.op_class_0::SimdFloatCvt            0      0.00%     63.46% # Class of committed instruction
system.cpu1.commit.op_class_0::SimdFloatDiv            0      0.00%     63.46% # Class of committed instruction
system.cpu1.commit.op_class_0::SimdFloatMisc            0      0.00%     63.46% # Class of committed instruction
system.cpu1.commit.op_class_0::SimdFloatMult            0      0.00%     63.46% # Class of committed instruction
system.cpu1.commit.op_class_0::SimdFloatMultAcc            0      0.00%     63.46% # Class of committed instruction
system.cpu1.commit.op_class_0::SimdFloatSqrt            0      0.00%     63.46% # Class of committed instruction
system.cpu1.commit.op_class_0::SimdReduceAdd            0      0.00%     63.46% # Class of committed instruction
system.cpu1.commit.op_class_0::SimdReduceAlu            0      0.00%     63.46% # Class of committed instruction
system.cpu1.commit.op_class_0::SimdReduceCmp            0      0.00%     63.46% # Class of committed instruction
system.cpu1.commit.op_class_0::SimdFloatReduceAdd            0      0.00%     63.46% # Class of committed instruction
system.cpu1.commit.op_class_0::SimdFloatReduceCmp            0      0.00%     63.46% # Class of committed instruction
system.cpu1.commit.op_class_0::SimdAes              0      0.00%     63.46% # Class of committed instruction
system.cpu1.commit.op_class_0::SimdAesMix            0      0.00%     63.46% # Class of committed instruction
system.cpu1.commit.op_class_0::SimdSha1Hash            0      0.00%     63.46% # Class of committed instruction
system.cpu1.commit.op_class_0::SimdSha1Hash2            0      0.00%     63.46% # Class of committed instruction
system.cpu1.commit.op_class_0::SimdSha256Hash            0      0.00%     63.46% # Class of committed instruction
system.cpu1.commit.op_class_0::SimdSha256Hash2            0      0.00%     63.46% # Class of committed instruction
system.cpu1.commit.op_class_0::SimdShaSigma2            0      0.00%     63.46% # Class of committed instruction
system.cpu1.commit.op_class_0::SimdShaSigma3            0      0.00%     63.46% # Class of committed instruction
system.cpu1.commit.op_class_0::SimdPredAlu            0      0.00%     63.46% # Class of committed instruction
system.cpu1.commit.op_class_0::MemRead       10266425     30.85%     94.30% # Class of committed instruction
system.cpu1.commit.op_class_0::MemWrite       1895817      5.70%    100.00% # Class of committed instruction
system.cpu1.commit.op_class_0::FloatMemRead            0      0.00%    100.00% # Class of committed instruction
system.cpu1.commit.op_class_0::FloatMemWrite           12      0.00%    100.00% # Class of committed instruction
system.cpu1.commit.op_class_0::IprAccess            0      0.00%    100.00% # Class of committed instruction
system.cpu1.commit.op_class_0::InstPrefetch            0      0.00%    100.00% # Class of committed instruction
system.cpu1.commit.op_class_0::total         33280863                       # Class of committed instruction
system.cpu1.commit.refs                      12162254                       # Number of memory references committed
system.cpu1.commit.swp_count                        0                       # Number of s/w prefetches committed
system.cpu1.commit.vec_insts                        0                       # Number of committed Vector instructions.
system.cpu1.committedInsts                   32262764                       # Number of Instructions Simulated
system.cpu1.committedOps                     33280863                       # Number of Ops (including micro ops) Simulated
system.cpu1.cpi                              6.265253                       # CPI: Cycles Per Instruction
system.cpu1.cpi_total                        6.265253                       # CPI: Total CPI of All Threads
system.cpu1.decode.BlockedCycles            180844484                       # Number of cycles decode is blocked
system.cpu1.decode.BranchMispred               334284                       # Number of times decode detected a branch misprediction
system.cpu1.decode.BranchResolved             4368489                       # Number of times decode resolved a branch
system.cpu1.decode.DecodedInsts              39733459                       # Number of instructions handled by decode
system.cpu1.decode.IdleCycles                 5423633                       # Number of cycles decode is idle
system.cpu1.decode.RunCycles                 12813517                       # Number of cycles decode is running
system.cpu1.decode.SquashCycles                483683                       # Number of cycles decode is squashing
system.cpu1.decode.SquashedInsts               623353                       # Number of squashed instructions handled by decode
system.cpu1.decode.UnblockCycles              2314454                       # Number of cycles decode is unblocking
system.cpu1.dtb.accesses                            0                       # DTB accesses
system.cpu1.dtb.hits                                0                       # DTB hits
system.cpu1.dtb.misses                              0                       # DTB misses
system.cpu1.dtb.read_accesses                       0                       # DTB read accesses
system.cpu1.dtb.read_hits                           0                       # DTB read hits
system.cpu1.dtb.read_misses                         0                       # DTB read misses
system.cpu1.dtb.write_accesses                      0                       # DTB write accesses
system.cpu1.dtb.write_hits                          0                       # DTB write hits
system.cpu1.dtb.write_misses                        0                       # DTB write misses
system.cpu1.fetch.Branches                    8795605                       # Number of branches that fetch encountered
system.cpu1.fetch.CacheLines                  5025832                       # Number of cache lines fetched
system.cpu1.fetch.Cycles                    195534614                       # Number of cycles fetch has run and was not squashing or blocked
system.cpu1.fetch.IcacheSquashes                53647                       # Number of outstanding Icache misses that were squashed
system.cpu1.fetch.IcacheWaitRetryStallCycles            1                       # Number of stall cycles due to full MSHR
system.cpu1.fetch.Insts                      40667413                       # Number of instructions fetch has processed
system.cpu1.fetch.MiscStallCycles                   2                       # Number of cycles fetch has spent waiting on interrupts, or bad addresses, or out of MSHRs
system.cpu1.fetch.SquashCycles                1629220                       # Number of cycles fetch has spent squashing
system.cpu1.fetch.branchRate                 0.043514                       # Number of branch fetches per cycle
system.cpu1.fetch.icacheStallCycles           5530544                       # Number of cycles fetch is stalled on an Icache miss
system.cpu1.fetch.predictedBranches           4817272                       # Number of branches that fetch has predicted taken
system.cpu1.fetch.rate                       0.201190                       # Number of inst fetches per cycle
system.cpu1.fetch.rateDist::samples         201879771                       # Number of instructions fetched each cycle (Total)
system.cpu1.fetch.rateDist::mean             0.206489                       # Number of instructions fetched each cycle (Total)
system.cpu1.fetch.rateDist::stdev            0.646309                       # Number of instructions fetched each cycle (Total)
system.cpu1.fetch.rateDist::underflows              0      0.00%      0.00% # Number of instructions fetched each cycle (Total)
system.cpu1.fetch.rateDist::0               176994278     87.67%     87.67% # Number of instructions fetched each cycle (Total)
system.cpu1.fetch.rateDist::1                14406918      7.14%     94.81% # Number of instructions fetched each cycle (Total)
system.cpu1.fetch.rateDist::2                 6070695      3.01%     97.82% # Number of instructions fetched each cycle (Total)
system.cpu1.fetch.rateDist::3                 2953085      1.46%     99.28% # Number of instructions fetched each cycle (Total)
system.cpu1.fetch.rateDist::4                 1124197      0.56%     99.84% # Number of instructions fetched each cycle (Total)
system.cpu1.fetch.rateDist::5                  202234      0.10%     99.94% # Number of instructions fetched each cycle (Total)
system.cpu1.fetch.rateDist::6                  128177      0.06%    100.00% # Number of instructions fetched each cycle (Total)
system.cpu1.fetch.rateDist::7                      54      0.00%    100.00% # Number of instructions fetched each cycle (Total)
system.cpu1.fetch.rateDist::8                     133      0.00%    100.00% # Number of instructions fetched each cycle (Total)
system.cpu1.fetch.rateDist::overflows               0      0.00%    100.00% # Number of instructions fetched each cycle (Total)
system.cpu1.fetch.rateDist::min_value               0                       # Number of instructions fetched each cycle (Total)
system.cpu1.fetch.rateDist::max_value               8                       # Number of instructions fetched each cycle (Total)
system.cpu1.fetch.rateDist::total           201879771                       # Number of instructions fetched each cycle (Total)
system.cpu1.fp_regfile_reads                       12                       # number of floating regfile reads
system.cpu1.idleCycles                         254619                       # Total number of cycles that the CPU has spent unscheduled due to idling
system.cpu1.iew.branchMispredicts              514830                       # Number of branch mispredicts detected at execute
system.cpu1.iew.exec_branches                 7735052                       # Number of branches executed
system.cpu1.iew.exec_nop                            0                       # number of nop insts executed
system.cpu1.iew.exec_rate                    0.179964                       # Inst execution rate
system.cpu1.iew.exec_refs                    12975779                       # number of memory reference insts executed
system.cpu1.iew.exec_stores                   2944832                       # Number of stores executed
system.cpu1.iew.exec_swp                            0                       # number of swp insts executed
system.cpu1.iew.iewBlockCycles              155906934                       # Number of cycles IEW is blocking
system.cpu1.iew.iewDispLoadInsts             10091475                       # Number of dispatched load instructions
system.cpu1.iew.iewDispNonSpecInsts           1018686                       # Number of dispatched non-speculative instructions
system.cpu1.iew.iewDispSquashedInsts           589706                       # Number of squashed instructions skipped by dispatch
system.cpu1.iew.iewDispStoreInsts             2978741                       # Number of dispatched store instructions
system.cpu1.iew.iewDispatchedInsts           37717370                       # Number of instructions dispatched to IQ
system.cpu1.iew.iewExecLoadInsts             10030947                       # Number of load instructions executed
system.cpu1.iew.iewExecSquashedInsts           580633                       # Number of squashed instructions skipped in execute
system.cpu1.iew.iewExecutedInsts             36376853                       # Number of executed instructions
system.cpu1.iew.iewIQFullEvents               1034466                       # Number of times the IQ has become full, causing a stall
system.cpu1.iew.iewIdleCycles                       0                       # Number of cycles IEW is idle
system.cpu1.iew.iewLSQFullEvents              2219210                       # Number of times the LSQ has become full, causing a stall
system.cpu1.iew.iewSquashCycles                483683                       # Number of cycles IEW is squashing
system.cpu1.iew.iewUnblockCycles              4411669                       # Number of cycles IEW is unblocking
system.cpu1.iew.lsq.thread0.blockedLoads            0                       # Number of blocked loads due to partial load-store forwarding
system.cpu1.iew.lsq.thread0.cacheBlocked        19742                       # Number of times an access to memory failed due to the cache being blocked
system.cpu1.iew.lsq.thread0.forwLoads          153603                       # Number of loads that had data forwarded from stores
system.cpu1.iew.lsq.thread0.ignoredResponses         4565                       # Number of memory responses ignored because the instruction is squashed
system.cpu1.iew.lsq.thread0.invAddrLoads            0                       # Number of loads ignored due to an invalid address
system.cpu1.iew.lsq.thread0.invAddrSwpfs            0                       # Number of software prefetches ignored due to an invalid address
system.cpu1.iew.lsq.thread0.memOrderViolation          176                       # Number of memory ordering violations
system.cpu1.iew.lsq.thread0.rescheduledLoads          426                       # Number of loads that were rescheduled
system.cpu1.iew.lsq.thread0.squashedLoads       842977                       # Number of loads squashed
system.cpu1.iew.lsq.thread0.squashedStores        64985                       # Number of stores squashed
system.cpu1.iew.memOrderViolationEvents           176                       # Number of memory order violations
system.cpu1.iew.predictedNotTakenIncorrect        92068                       # Number of branches that were predicted not taken incorrectly
system.cpu1.iew.predictedTakenIncorrect        422762                       # Number of branches that were predicted taken incorrectly
system.cpu1.iew.wb_consumers                 21250881                       # num instructions consuming a value
system.cpu1.iew.wb_count                     36102633                       # cumulative count of insts written-back
system.cpu1.iew.wb_fanout                    0.871785                       # average fanout of values written-back
system.cpu1.iew.wb_producers                 18526201                       # num instructions producing a value
system.cpu1.iew.wb_rate                      0.178607                       # insts written-back per cycle
system.cpu1.iew.wb_sent                      36112760                       # cumulative count of insts sent to commit
system.cpu1.int_regfile_reads                44715611                       # number of integer regfile reads
system.cpu1.int_regfile_writes               24612159                       # number of integer regfile writes
system.cpu1.ipc                              0.159610                       # IPC: Instructions Per Cycle
system.cpu1.ipc_total                        0.159610                       # IPC: Total IPC of All Threads
system.cpu1.iq.FU_type_0::No_OpClass          2036091      5.51%      5.51% # Type of FU issued
system.cpu1.iq.FU_type_0::IntAlu             21874893     59.19%     64.70% # Type of FU issued
system.cpu1.iq.FU_type_0::IntMult                  46      0.00%     64.70% # Type of FU issued
system.cpu1.iq.FU_type_0::IntDiv                   86      0.00%     64.70% # Type of FU issued
system.cpu1.iq.FU_type_0::FloatAdd                  0      0.00%     64.70% # Type of FU issued
system.cpu1.iq.FU_type_0::FloatCmp                  0      0.00%     64.70% # Type of FU issued
system.cpu1.iq.FU_type_0::FloatCvt                  0      0.00%     64.70% # Type of FU issued
system.cpu1.iq.FU_type_0::FloatMult                 0      0.00%     64.70% # Type of FU issued
system.cpu1.iq.FU_type_0::FloatMultAcc              0      0.00%     64.70% # Type of FU issued
system.cpu1.iq.FU_type_0::FloatDiv                  0      0.00%     64.70% # Type of FU issued
system.cpu1.iq.FU_type_0::FloatMisc                 0      0.00%     64.70% # Type of FU issued
system.cpu1.iq.FU_type_0::FloatSqrt                 0      0.00%     64.70% # Type of FU issued
system.cpu1.iq.FU_type_0::SimdAdd                   0      0.00%     64.70% # Type of FU issued
system.cpu1.iq.FU_type_0::SimdAddAcc                0      0.00%     64.70% # Type of FU issued
system.cpu1.iq.FU_type_0::SimdAlu                   0      0.00%     64.70% # Type of FU issued
system.cpu1.iq.FU_type_0::SimdCmp                   0      0.00%     64.70% # Type of FU issued
system.cpu1.iq.FU_type_0::SimdCvt                   0      0.00%     64.70% # Type of FU issued
system.cpu1.iq.FU_type_0::SimdMisc                  0      0.00%     64.70% # Type of FU issued
system.cpu1.iq.FU_type_0::SimdMult                  0      0.00%     64.70% # Type of FU issued
system.cpu1.iq.FU_type_0::SimdMultAcc               0      0.00%     64.70% # Type of FU issued
system.cpu1.iq.FU_type_0::SimdShift                 0      0.00%     64.70% # Type of FU issued
system.cpu1.iq.FU_type_0::SimdShiftAcc              0      0.00%     64.70% # Type of FU issued
system.cpu1.iq.FU_type_0::SimdDiv                   0      0.00%     64.70% # Type of FU issued
system.cpu1.iq.FU_type_0::SimdSqrt                  0      0.00%     64.70% # Type of FU issued
system.cpu1.iq.FU_type_0::SimdFloatAdd              0      0.00%     64.70% # Type of FU issued
system.cpu1.iq.FU_type_0::SimdFloatAlu              0      0.00%     64.70% # Type of FU issued
system.cpu1.iq.FU_type_0::SimdFloatCmp              0      0.00%     64.70% # Type of FU issued
system.cpu1.iq.FU_type_0::SimdFloatCvt              0      0.00%     64.70% # Type of FU issued
system.cpu1.iq.FU_type_0::SimdFloatDiv              0      0.00%     64.70% # Type of FU issued
system.cpu1.iq.FU_type_0::SimdFloatMisc             0      0.00%     64.70% # Type of FU issued
system.cpu1.iq.FU_type_0::SimdFloatMult             0      0.00%     64.70% # Type of FU issued
system.cpu1.iq.FU_type_0::SimdFloatMultAcc            0      0.00%     64.70% # Type of FU issued
system.cpu1.iq.FU_type_0::SimdFloatSqrt             0      0.00%     64.70% # Type of FU issued
system.cpu1.iq.FU_type_0::SimdReduceAdd             0      0.00%     64.70% # Type of FU issued
system.cpu1.iq.FU_type_0::SimdReduceAlu             0      0.00%     64.70% # Type of FU issued
system.cpu1.iq.FU_type_0::SimdReduceCmp             0      0.00%     64.70% # Type of FU issued
system.cpu1.iq.FU_type_0::SimdFloatReduceAdd            0      0.00%     64.70% # Type of FU issued
system.cpu1.iq.FU_type_0::SimdFloatReduceCmp            0      0.00%     64.70% # Type of FU issued
system.cpu1.iq.FU_type_0::SimdAes                   0      0.00%     64.70% # Type of FU issued
system.cpu1.iq.FU_type_0::SimdAesMix                0      0.00%     64.70% # Type of FU issued
system.cpu1.iq.FU_type_0::SimdSha1Hash              0      0.00%     64.70% # Type of FU issued
system.cpu1.iq.FU_type_0::SimdSha1Hash2             0      0.00%     64.70% # Type of FU issued
system.cpu1.iq.FU_type_0::SimdSha256Hash            0      0.00%     64.70% # Type of FU issued
system.cpu1.iq.FU_type_0::SimdSha256Hash2            0      0.00%     64.70% # Type of FU issued
system.cpu1.iq.FU_type_0::SimdShaSigma2             0      0.00%     64.70% # Type of FU issued
system.cpu1.iq.FU_type_0::SimdShaSigma3             0      0.00%     64.70% # Type of FU issued
system.cpu1.iq.FU_type_0::SimdPredAlu               0      0.00%     64.70% # Type of FU issued
system.cpu1.iq.FU_type_0::MemRead            11111503     30.07%     94.76% # Type of FU issued
system.cpu1.iq.FU_type_0::MemWrite            1934855      5.24%    100.00% # Type of FU issued
system.cpu1.iq.FU_type_0::FloatMemRead              0      0.00%    100.00% # Type of FU issued
system.cpu1.iq.FU_type_0::FloatMemWrite            12      0.00%    100.00% # Type of FU issued
system.cpu1.iq.FU_type_0::IprAccess                 0      0.00%    100.00% # Type of FU issued
system.cpu1.iq.FU_type_0::InstPrefetch              0      0.00%    100.00% # Type of FU issued
system.cpu1.iq.FU_type_0::total              36957486                       # Type of FU issued
system.cpu1.iq.fp_alu_accesses                     15                       # Number of floating point alu accesses
system.cpu1.iq.fp_inst_queue_reads                 27                       # Number of floating instruction queue reads
system.cpu1.iq.fp_inst_queue_wakeup_accesses           12                       # Number of floating instruction queue wakeup accesses
system.cpu1.iq.fp_inst_queue_writes                12                       # Number of floating instruction queue writes
system.cpu1.iq.fu_busy_cnt                    1102780                       # FU busy when requested
system.cpu1.iq.fu_busy_rate                  0.029839                       # FU busy rate (busy events/executed inst)
system.cpu1.iq.fu_full::No_OpClass                  0      0.00%      0.00% # attempts to use FU when none available
system.cpu1.iq.fu_full::IntAlu                 203738     18.47%     18.47% # attempts to use FU when none available
system.cpu1.iq.fu_full::IntMult                     0      0.00%     18.47% # attempts to use FU when none available
system.cpu1.iq.fu_full::IntDiv                      0      0.00%     18.47% # attempts to use FU when none available
system.cpu1.iq.fu_full::FloatAdd                    0      0.00%     18.47% # attempts to use FU when none available
system.cpu1.iq.fu_full::FloatCmp                    0      0.00%     18.47% # attempts to use FU when none available
system.cpu1.iq.fu_full::FloatCvt                    0      0.00%     18.47% # attempts to use FU when none available
system.cpu1.iq.fu_full::FloatMult                   0      0.00%     18.47% # attempts to use FU when none available
system.cpu1.iq.fu_full::FloatMultAcc                0      0.00%     18.47% # attempts to use FU when none available
system.cpu1.iq.fu_full::FloatDiv                    0      0.00%     18.47% # attempts to use FU when none available
system.cpu1.iq.fu_full::FloatMisc                   0      0.00%     18.47% # attempts to use FU when none available
system.cpu1.iq.fu_full::FloatSqrt                   0      0.00%     18.47% # attempts to use FU when none available
system.cpu1.iq.fu_full::SimdAdd                     0      0.00%     18.47% # attempts to use FU when none available
system.cpu1.iq.fu_full::SimdAddAcc                  0      0.00%     18.47% # attempts to use FU when none available
system.cpu1.iq.fu_full::SimdAlu                     0      0.00%     18.47% # attempts to use FU when none available
system.cpu1.iq.fu_full::SimdCmp                     0      0.00%     18.47% # attempts to use FU when none available
system.cpu1.iq.fu_full::SimdCvt                     0      0.00%     18.47% # attempts to use FU when none available
system.cpu1.iq.fu_full::SimdMisc                    0      0.00%     18.47% # attempts to use FU when none available
system.cpu1.iq.fu_full::SimdMult                    0      0.00%     18.47% # attempts to use FU when none available
system.cpu1.iq.fu_full::SimdMultAcc                 0      0.00%     18.47% # attempts to use FU when none available
system.cpu1.iq.fu_full::SimdShift                   0      0.00%     18.47% # attempts to use FU when none available
system.cpu1.iq.fu_full::SimdShiftAcc                0      0.00%     18.47% # attempts to use FU when none available
system.cpu1.iq.fu_full::SimdDiv                     0      0.00%     18.47% # attempts to use FU when none available
system.cpu1.iq.fu_full::SimdSqrt                    0      0.00%     18.47% # attempts to use FU when none available
system.cpu1.iq.fu_full::SimdFloatAdd                0      0.00%     18.47% # attempts to use FU when none available
system.cpu1.iq.fu_full::SimdFloatAlu                0      0.00%     18.47% # attempts to use FU when none available
system.cpu1.iq.fu_full::SimdFloatCmp                0      0.00%     18.47% # attempts to use FU when none available
system.cpu1.iq.fu_full::SimdFloatCvt                0      0.00%     18.47% # attempts to use FU when none available
system.cpu1.iq.fu_full::SimdFloatDiv                0      0.00%     18.47% # attempts to use FU when none available
system.cpu1.iq.fu_full::SimdFloatMisc               0      0.00%     18.47% # attempts to use FU when none available
system.cpu1.iq.fu_full::SimdFloatMult               0      0.00%     18.47% # attempts to use FU when none available
system.cpu1.iq.fu_full::SimdFloatMultAcc            0      0.00%     18.47% # attempts to use FU when none available
system.cpu1.iq.fu_full::SimdFloatSqrt               0      0.00%     18.47% # attempts to use FU when none available
system.cpu1.iq.fu_full::SimdReduceAdd               0      0.00%     18.47% # attempts to use FU when none available
system.cpu1.iq.fu_full::SimdReduceAlu               0      0.00%     18.47% # attempts to use FU when none available
system.cpu1.iq.fu_full::SimdReduceCmp               0      0.00%     18.47% # attempts to use FU when none available
system.cpu1.iq.fu_full::SimdFloatReduceAdd            0      0.00%     18.47% # attempts to use FU when none available
system.cpu1.iq.fu_full::SimdFloatReduceCmp            0      0.00%     18.47% # attempts to use FU when none available
system.cpu1.iq.fu_full::SimdAes                     0      0.00%     18.47% # attempts to use FU when none available
system.cpu1.iq.fu_full::SimdAesMix                  0      0.00%     18.47% # attempts to use FU when none available
system.cpu1.iq.fu_full::SimdSha1Hash                0      0.00%     18.47% # attempts to use FU when none available
system.cpu1.iq.fu_full::SimdSha1Hash2               0      0.00%     18.47% # attempts to use FU when none available
system.cpu1.iq.fu_full::SimdSha256Hash              0      0.00%     18.47% # attempts to use FU when none available
system.cpu1.iq.fu_full::SimdSha256Hash2             0      0.00%     18.47% # attempts to use FU when none available
system.cpu1.iq.fu_full::SimdShaSigma2               0      0.00%     18.47% # attempts to use FU when none available
system.cpu1.iq.fu_full::SimdShaSigma3               0      0.00%     18.47% # attempts to use FU when none available
system.cpu1.iq.fu_full::SimdPredAlu                 0      0.00%     18.47% # attempts to use FU when none available
system.cpu1.iq.fu_full::MemRead                809109     73.37%     91.84% # attempts to use FU when none available
[...]
system.cpu1.dcache.WriteReq_hits::.cpu1.data     19032534                       # number of WriteReq hits
system.cpu1.dcache.WriteReq_hits::total      19032534                       # number of WriteReq hits
system.cpu1.dcache.WriteReq_misses::.cpu1.data      6264735                       # number of WriteReq misses
system.cpu1.dcache.WriteReq_misses::total      6264735                       # number of WriteReq misses
system.cpu1.dcache.WriteReq_miss_latency::.cpu1.data 372158230114                       # number of WriteReq miss cycles
system.cpu1.dcache.WriteReq_miss_latency::total 372158230114                       # number of WriteReq miss cycles
system.cpu1.dcache.WriteReq_accesses::.cpu1.data     25297269                       # number of WriteReq accesses(hits+misses)
system.cpu1.dcache.WriteReq_accesses::total     25297269                       # number of WriteReq accesses(hits+misses)
system.cpu1.dcache.WriteReq_miss_rate::.cpu1.data     0.247645                       # miss rate for WriteReq accesses
system.cpu1.dcache.WriteReq_miss_rate::total     0.247645                       # miss rate for WriteReq accesses
system.cpu1.dcache.WriteReq_avg_miss_latency::.cpu1.data 59405.262970                       # average WriteReq miss latency
system.cpu1.dcache.WriteReq_avg_miss_latency::total 59405.262970                       # average WriteReq miss latency
system.cpu1.dcache.WriteReq_mshr_hits::.cpu1.data      4936681                       # number of WriteReq MSHR hits
system.cpu1.dcache.WriteReq_mshr_hits::total      4936681                       # number of WriteReq MSHR hits
system.cpu1.dcache.WriteReq_mshr_misses::.cpu1.data      1328054                       # number of WriteReq MSHR misses
system.cpu1.dcache.WriteReq_mshr_misses::total      1328054                       # number of WriteReq MSHR misses
system.cpu1.dcache.WriteReq_mshr_miss_latency::.cpu1.data  89611839863                       # number of WriteReq MSHR miss cycles
system.cpu1.dcache.WriteReq_mshr_miss_latency::total  89611839863                       # number of WriteReq MSHR miss cycles
system.cpu1.dcache.WriteReq_mshr_miss_rate::.cpu1.data     0.052498                       # mshr miss rate for WriteReq accesses
system.cpu1.dcache.WriteReq_mshr_miss_rate::total     0.052498                       # mshr miss rate for WriteReq accesses
system.cpu1.dcache.WriteReq_avg_mshr_miss_latency::.cpu1.data 67476.051322                       # average WriteReq mshr miss latency
system.cpu1.dcache.WriteReq_avg_mshr_miss_latency::total 67476.051322                       # average WriteReq mshr miss latency
system.cpu1.dcache.LoadLockedReq_hits::.cpu1.data         6436                       # number of LoadLockedReq hits
system.cpu1.dcache.LoadLockedReq_hits::total         6436                       # number of LoadLockedReq hits
system.cpu1.dcache.LoadLockedReq_misses::.cpu1.data         1521                       # number of LoadLockedReq misses
system.cpu1.dcache.LoadLockedReq_misses::total         1521                       # number of LoadLockedReq misses
system.cpu1.dcache.LoadLockedReq_miss_latency::.cpu1.data     69708000                       # number of LoadLockedReq miss cycles
system.cpu1.dcache.LoadLockedReq_miss_latency::total     69708000                       # number of LoadLockedReq miss cycles
system.cpu1.dcache.LoadLockedReq_accesses::.cpu1.data         7957                       # number of LoadLockedReq accesses(hits+misses)
system.cpu1.dcache.LoadLockedReq_accesses::total         7957                       # number of LoadLockedReq accesses(hits+misses)
system.cpu1.dcache.LoadLockedReq_miss_rate::.cpu1.data     0.191152                       # miss rate for LoadLockedReq accesses
system.cpu1.dcache.LoadLockedReq_miss_rate::total     0.191152                       # miss rate for LoadLockedReq accesses
system.cpu1.dcache.LoadLockedReq_avg_miss_latency::.cpu1.data 45830.374753                       # average LoadLockedReq miss latency
system.cpu1.dcache.LoadLockedReq_avg_miss_latency::total 45830.374753                       # average LoadLockedReq miss latency
system.cpu1.dcache.LoadLockedReq_mshr_hits::.cpu1.data         1222                       # number of LoadLockedReq MSHR hits
system.cpu1.dcache.LoadLockedReq_mshr_hits::total         1222                       # number of LoadLockedReq MSHR hits
system.cpu1.dcache.LoadLockedReq_mshr_misses::.cpu1.data          299                       # number of LoadLockedReq MSHR misses
system.cpu1.dcache.LoadLockedReq_mshr_misses::total          299                       # number of LoadLockedReq MSHR misses
system.cpu1.dcache.LoadLockedReq_mshr_miss_latency::.cpu1.data      3767500                       # number of LoadLockedReq MSHR miss cycles
system.cpu1.dcache.LoadLockedReq_mshr_miss_latency::total      3767500                       # number of LoadLockedReq MSHR miss cycles
system.cpu1.dcache.LoadLockedReq_mshr_miss_rate::.cpu1.data     0.037577                       # mshr miss rate for LoadLockedReq accesses
system.cpu1.dcache.LoadLockedReq_mshr_miss_rate::total     0.037577                       # mshr miss rate for LoadLockedReq accesses
system.cpu1.dcache.LoadLockedReq_avg_mshr_miss_latency::.cpu1.data 12600.334448                       # average LoadLockedReq mshr miss latency
system.cpu1.dcache.LoadLockedReq_avg_mshr_miss_latency::total 12600.334448                       # average LoadLockedReq mshr miss latency
system.cpu1.dcache.StoreCondReq_hits::.cpu1.data         4230                       # number of StoreCondReq hits
system.cpu1.dcache.StoreCondReq_hits::total         4230                       # number of StoreCondReq hits
system.cpu1.dcache.StoreCondReq_misses::.cpu1.data         3041                       # number of StoreCondReq misses
system.cpu1.dcache.StoreCondReq_misses::total         3041                       # number of StoreCondReq misses
system.cpu1.dcache.StoreCondReq_miss_latency::.cpu1.data     17558500                       # number of StoreCondReq miss cycles
system.cpu1.dcache.StoreCondReq_miss_latency::total     17558500                       # number of StoreCondReq miss cycles
system.cpu1.dcache.StoreCondReq_accesses::.cpu1.data         7271                       # number of StoreCondReq accesses(hits+misses)
system.cpu1.dcache.StoreCondReq_accesses::total         7271                       # number of StoreCondReq accesses(hits+misses)
system.cpu1.dcache.StoreCondReq_miss_rate::.cpu1.data     0.418237                       # miss rate for StoreCondReq accesses
system.cpu1.dcache.StoreCondReq_miss_rate::total     0.418237                       # miss rate for StoreCondReq accesses
system.cpu1.dcache.StoreCondReq_avg_miss_latency::.cpu1.data  5773.923052                       # average StoreCondReq miss latency
system.cpu1.dcache.StoreCondReq_avg_miss_latency::total  5773.923052                       # average StoreCondReq miss latency
system.cpu1.dcache.StoreCondReq_mshr_misses::.cpu1.data         3040                       # number of StoreCondReq MSHR misses
system.cpu1.dcache.StoreCondReq_mshr_misses::total         3040                       # number of StoreCondReq MSHR misses
system.cpu1.dcache.StoreCondReq_mshr_miss_latency::.cpu1.data     14519500                       # number of StoreCondReq MSHR miss cycles
system.cpu1.dcache.StoreCondReq_mshr_miss_latency::total     14519500                       # number of StoreCondReq MSHR miss cycles
system.cpu1.dcache.StoreCondReq_mshr_miss_rate::.cpu1.data     0.418099                       # mshr miss rate for StoreCondReq accesses
system.cpu1.dcache.StoreCondReq_mshr_miss_rate::total     0.418099                       # mshr miss rate for StoreCondReq accesses
system.cpu1.dcache.StoreCondReq_avg_mshr_miss_latency::.cpu1.data  4776.151316                       # average StoreCondReq mshr miss latency
system.cpu1.dcache.StoreCondReq_avg_mshr_miss_latency::total  4776.151316                       # average StoreCondReq mshr miss latency
system.cpu1.dcache.StoreCondFailReq_miss_latency::.cpu1.data        35000                       # number of StoreCondFailReq miss cycles
system.cpu1.dcache.StoreCondFailReq_miss_latency::total        35000                       # number of StoreCondFailReq miss cycles
system.cpu1.dcache.StoreCondFailReq_avg_miss_latency::.cpu1.data          inf                       # average StoreCondFailReq miss latency
system.cpu1.dcache.StoreCondFailReq_avg_miss_latency::total          inf                       # average StoreCondFailReq miss latency
system.cpu1.dcache.StoreCondFailReq_mshr_miss_latency::.cpu1.data        34000                       # number of StoreCondFailReq MSHR miss cycles
system.cpu1.dcache.StoreCondFailReq_mshr_miss_latency::total        34000                       # number of StoreCondFailReq MSHR miss cycles
system.cpu1.dcache.StoreCondFailReq_avg_mshr_miss_latency::.cpu1.data          inf                       # average StoreCondFailReq mshr miss latency
system.cpu1.dcache.StoreCondFailReq_avg_mshr_miss_latency::total          inf                       # average StoreCondFailReq mshr miss latency
system.cpu1.dcache.SwapReq_hits::.cpu1.data         3981                       # number of SwapReq hits
system.cpu1.dcache.SwapReq_hits::total           3981                       # number of SwapReq hits
system.cpu1.dcache.SwapReq_misses::.cpu1.data       190944                       # number of SwapReq misses
system.cpu1.dcache.SwapReq_misses::total       190944                       # number of SwapReq misses
system.cpu1.dcache.SwapReq_miss_latency::.cpu1.data   3986303000                       # number of SwapReq miss cycles
system.cpu1.dcache.SwapReq_miss_latency::total   3986303000                       # number of SwapReq miss cycles
system.cpu1.dcache.SwapReq_accesses::.cpu1.data       194925                       # number of SwapReq accesses(hits+misses)
system.cpu1.dcache.SwapReq_accesses::total       194925                       # number of SwapReq accesses(hits+misses)
system.cpu1.dcache.SwapReq_miss_rate::.cpu1.data     0.979577                       # miss rate for SwapReq accesses
system.cpu1.dcache.SwapReq_miss_rate::total     0.979577                       # miss rate for SwapReq accesses
system.cpu1.dcache.SwapReq_avg_miss_latency::.cpu1.data 20876.817287                       # average SwapReq miss latency
system.cpu1.dcache.SwapReq_avg_miss_latency::total 20876.817287                       # average SwapReq miss latency
system.cpu1.dcache.SwapReq_mshr_misses::.cpu1.data       190944                       # number of SwapReq MSHR misses
system.cpu1.dcache.SwapReq_mshr_misses::total       190944                       # number of SwapReq MSHR misses
system.cpu1.dcache.SwapReq_mshr_miss_latency::.cpu1.data   3795359000                       # number of SwapReq MSHR miss cycles
system.cpu1.dcache.SwapReq_mshr_miss_latency::total   3795359000                       # number of SwapReq MSHR miss cycles
system.cpu1.dcache.SwapReq_mshr_miss_rate::.cpu1.data     0.979577                       # mshr miss rate for SwapReq accesses
system.cpu1.dcache.SwapReq_mshr_miss_rate::total     0.979577                       # mshr miss rate for SwapReq accesses
system.cpu1.dcache.SwapReq_avg_mshr_miss_latency::.cpu1.data 19876.817287                       # average SwapReq mshr miss latency
system.cpu1.dcache.SwapReq_avg_mshr_miss_latency::total 19876.817287                       # average SwapReq mshr miss latency
system.cpu1.dcache.tags.pwrStateResidencyTicks::UNDEFINED 1944582500500                       # Cumulative time (in ticks) in various power states
system.cpu1.dcache.tags.tagsinuse           31.928590                       # Cycle average of tags in use
system.cpu1.dcache.tags.total_refs          219888268                       # Total number of references to valid blocks.
system.cpu1.dcache.tags.sampled_refs         69600994                       # Sample count of references to valid blocks.
system.cpu1.dcache.tags.avg_refs             3.159269                       # Average number of references to valid blocks.
system.cpu1.dcache.tags.warmup_cycle                0                       # Cycle when the warmup percentage was hit.
system.cpu1.dcache.tags.occ_blocks::.cpu1.data    31.928590                       # Average occupied blocks per requestor
system.cpu1.dcache.tags.occ_percent::.cpu1.data     0.997768                       # Average percentage of cache occupancy
system.cpu1.dcache.tags.occ_percent::total     0.997768                       # Average percentage of cache occupancy
system.cpu1.dcache.tags.occ_task_id_blocks::1024           24                       # Occupied blocks per task id
system.cpu1.dcache.tags.age_task_id_blocks_1024::1           24                       # Occupied blocks per task id
system.cpu1.dcache.tags.occ_task_id_percent::1024     0.750000                       # Percentage of cache occupancy per task id
system.cpu1.dcache.tags.tag_accesses        680105992                       # Number of tag accesses
system.cpu1.dcache.tags.data_accesses       680105992                       # Number of data accesses
system.cpu_clk_domain.clock                       500                       # Clock period in ticks
system.tol2bus.pwrStateResidencyTicks::UNDEFINED 1944582500500                       # Cumulative time (in ticks) in various power states
system.tol2bus.trans_dist::ReadResp         136817550                       # Transaction distribution
system.tol2bus.trans_dist::WritebackDirty      9557811                       # Transaction distribution
system.tol2bus.trans_dist::WritebackClean    133774367                       # Transaction distribution
system.tol2bus.trans_dist::CleanEvict       348608102                       # Transaction distribution
system.tol2bus.trans_dist::HardPFReq        212948472                       # Transaction distribution
system.tol2bus.trans_dist::HardPFResp             143                       # Transaction distribution
system.tol2bus.trans_dist::UpgradeReq          334973                       # Transaction distribution
system.tol2bus.trans_dist::SCUpgradeReq          5577                       # Transaction distribution
system.tol2bus.trans_dist::UpgradeResp         340550                       # Transaction distribution
system.tol2bus.trans_dist::SCUpgradeFailReq            1                       # Transaction distribution
system.tol2bus.trans_dist::UpgradeFailResp            1                       # Transaction distribution
system.tol2bus.trans_dist::ReadExReq          2819514                       # Transaction distribution
system.tol2bus.trans_dist::ReadExResp         2819514                       # Transaction distribution
system.tol2bus.trans_dist::ReadCleanReq        188819                       # Transaction distribution
system.tol2bus.trans_dist::ReadSharedReq    136628732                       # Transaction distribution
system.tol2bus.trans_dist::InvalidateReq           15                       # Transaction distribution
system.tol2bus.trans_dist::InvalidateResp           15                       # Transaction distribution
system.tol2bus.pkt_count_system.cpu0.icache.mem_side::system.l2.cpu_side       452332                       # Packet count per connected master and slave (bytes)
system.tol2bus.pkt_count_system.cpu0.dcache.mem_side::system.l2.cpu_side    209246192                       # Packet count per connected master and slave (bytes)
system.tol2bus.pkt_count_system.cpu1.icache.mem_side::system.l2.cpu_side       114123                       # Packet count per connected master and slave (bytes)
system.tol2bus.pkt_count_system.cpu1.dcache.mem_side::system.l2.cpu_side    208504008                       # Packet count per connected master and slave (bytes)
system.tol2bus.pkt_count::total             418316655                       # Packet count per connected master and slave (bytes)
system.tol2bus.pkt_size_system.cpu0.icache.mem_side::system.l2.cpu_side     19299456                       # Cumulative packet size per connected master and slave (bytes)
system.tol2bus.pkt_size_system.cpu0.dcache.mem_side::system.l2.cpu_side   8907288448                       # Cumulative packet size per connected master and slave (bytes)
system.tol2bus.pkt_size_system.cpu1.icache.mem_side::system.l2.cpu_side      4869248                       # Cumulative packet size per connected master and slave (bytes)
system.tol2bus.pkt_size_system.cpu1.dcache.mem_side::system.l2.cpu_side   8875659200                       # Cumulative packet size per connected master and slave (bytes)
system.tol2bus.pkt_size::total            17807116352                       # Cumulative packet size per connected master and slave (bytes)
system.tol2bus.snoops                       566527644                       # Total snoops (count)
system.tol2bus.snoopTraffic                 302933504                       # Total snoop traffic (bytes)
system.tol2bus.snoop_fanout::samples        705902773                       # Request fanout histogram
system.tol2bus.snoop_fanout::mean            0.187158                       # Request fanout histogram
system.tol2bus.snoop_fanout::stdev           0.404642                       # Request fanout histogram
system.tol2bus.snoop_fanout::underflows             0      0.00%      0.00% # Request fanout histogram
system.tol2bus.snoop_fanout::0              577883535     81.86%     81.86% # Request fanout histogram
system.tol2bus.snoop_fanout::1              123923226     17.56%     99.42% # Request fanout histogram
system.tol2bus.snoop_fanout::2                4096012      0.58%    100.00% # Request fanout histogram
system.tol2bus.snoop_fanout::3                      0      0.00%    100.00% # Request fanout histogram
system.tol2bus.snoop_fanout::4                      0      0.00%    100.00% # Request fanout histogram
system.tol2bus.snoop_fanout::5                      0      0.00%    100.00% # Request fanout histogram
system.tol2bus.snoop_fanout::6                      0      0.00%    100.00% # Request fanout histogram
system.tol2bus.snoop_fanout::7                      0      0.00%    100.00% # Request fanout histogram
system.tol2bus.snoop_fanout::8                      0      0.00%    100.00% # Request fanout histogram
system.tol2bus.snoop_fanout::overflows              0      0.00%    100.00% # Request fanout histogram
system.tol2bus.snoop_fanout::min_value              0                       # Request fanout histogram
system.tol2bus.snoop_fanout::max_value              2                       # Request fanout histogram
system.tol2bus.snoop_fanout::total          705902773                       # Request fanout histogram
system.tol2bus.reqLayer0.occupancy       278921159299                       # Layer occupancy (ticks)
system.tol2bus.reqLayer0.utilization             14.3                       # Layer utilization (%)
system.tol2bus.respLayer1.occupancy      105064512258                       # Layer occupancy (ticks)
system.tol2bus.respLayer1.utilization             5.4                       # Layer utilization (%)
system.tol2bus.respLayer0.occupancy         226510309                       # Layer occupancy (ticks)
system.tol2bus.respLayer0.utilization             0.0                       # Layer utilization (%)
system.tol2bus.respLayer3.occupancy      104697920675                       # Layer occupancy (ticks)
system.tol2bus.respLayer3.utilization             5.4                       # Layer utilization (%)
system.tol2bus.respLayer2.occupancy          57286549                       # Layer occupancy (ticks)
system.tol2bus.respLayer2.utilization             0.0                       # Layer utilization (%)
system.tol2bus.snoopLayer0.occupancy           214573                       # Layer occupancy (ticks)
system.tol2bus.snoopLayer0.utilization            0.0                       # Layer utilization (%)

---------- End Simulation Statistics   ----------
