
---------- Begin Simulation Statistics ----------
final_tick                               1057942738500                       # Number of ticks from beginning of simulation (restored from checkpoints and never reset)
host_inst_rate                                 106852                       # Simulator instruction rate (inst/s)
host_mem_usage                                 739336                       # Number of bytes of host memory used
host_op_rate                                   107164                       # Simulator op (including micro ops) rate (op/s)
host_seconds                                 13485.22                       # Real time elapsed on the host
host_tick_rate                               78451995                       # Simulator tick rate (ticks/s)
sim_freq                                 1000000000000                       # Frequency of simulated ticks
sim_insts                                  1440929587                       # Number of instructions simulated
sim_ops                                    1445134617                       # Number of ops (including micro ops) simulated
sim_seconds                                  1.057943                       # Number of seconds simulated
sim_ticks                                1057942738500                       # Number of ticks simulated
system.cpu0.branchPred.BTBCorrect                   0                       # Number of correct BTB predictions (this stat may not work properly.
system.cpu0.branchPred.BTBHitPct            88.040426                       # BTB Hit Percentage
system.cpu0.branchPred.BTBHits              168443588                       # Number of BTB hits
system.cpu0.branchPred.BTBLookups           191325275                       # Number of BTB lookups
system.cpu0.branchPred.RASInCorrect                 0                       # Number of incorrect RAS predictions.
system.cpu0.branchPred.condIncorrect         15482200                       # Number of conditional branches incorrect
system.cpu0.branchPred.condPredicted        259342741                       # Number of conditional branches predicted
system.cpu0.branchPred.indirectHits          21680120                       # Number of indirect target hits.
system.cpu0.branchPred.indirectLookups       22318057                       # Number of indirect predictor lookups.
system.cpu0.branchPred.indirectMisses          637937                       # Number of indirect misses.
system.cpu0.branchPred.lookups              328997190                       # Number of BP lookups
system.cpu0.branchPred.usedRAS                      0                       # Number of times the RAS was used to get a target.
system.cpu0.branchPredindirectMispredicted      2148246                       # Number of mispredicted indirect branches.
system.cpu0.commit.amos                       1050446                       # Number of atomic instructions committed
system.cpu0.commit.branchMispredicts          9398082                       # The number of times a branch was mispredicted
system.cpu0.commit.branches                 313654255                       # Number of branches committed
system.cpu0.commit.bw_lim_events             33798850                       # number cycles where commit BW limit reached
system.cpu0.commit.commitNonSpecStalls        3160575                       # The number of times commit has been forced to stall to communicate backwards
system.cpu0.commit.commitSquashedInsts       45825487                       # The number of squashed insts skipped by commit
system.cpu0.commit.committedInsts          1250514553                       # Number of instructions committed
system.cpu0.commit.committedOps            1251568286                       # Number of ops (including micro ops) committed
system.cpu0.commit.committed_per_cycle::samples   1946461881                       # Number of insts commited each cycle
system.cpu0.commit.committed_per_cycle::mean     0.642997                       # Number of insts commited each cycle
system.cpu0.commit.committed_per_cycle::stdev     1.400300                       # Number of insts commited each cycle
system.cpu0.commit.committed_per_cycle::underflows            0      0.00%      0.00% # Number of insts commited each cycle
system.cpu0.commit.committed_per_cycle::0   1343672741     69.03%     69.03% # Number of insts commited each cycle
system.cpu0.commit.committed_per_cycle::1    358269336     18.41%     87.44% # Number of insts commited each cycle
system.cpu0.commit.committed_per_cycle::2     84483756      4.34%     91.78% # Number of insts commited each cycle
system.cpu0.commit.committed_per_cycle::3     82454871      4.24%     96.01% # Number of insts commited each cycle
system.cpu0.commit.committed_per_cycle::4     26137816      1.34%     97.36% # Number of insts commited each cycle
system.cpu0.commit.committed_per_cycle::5      8286129      0.43%     97.78% # Number of insts commited each cycle
system.cpu0.commit.committed_per_cycle::6      4914558      0.25%     98.04% # Number of insts commited each cycle
system.cpu0.commit.committed_per_cycle::7      4443824      0.23%     98.26% # Number of insts commited each cycle
system.cpu0.commit.committed_per_cycle::8     33798850      1.74%    100.00% # Number of insts commited each cycle
system.cpu0.commit.committed_per_cycle::overflows            0      0.00%    100.00% # Number of insts commited each cycle
system.cpu0.commit.committed_per_cycle::min_value            0                       # Number of insts commited each cycle
system.cpu0.commit.committed_per_cycle::max_value            8                       # Number of insts commited each cycle
system.cpu0.commit.committed_per_cycle::total   1946461881                       # Number of insts commited each cycle
system.cpu0.commit.fp_insts                        50                       # Number of committed floating point instructions.
system.cpu0.commit.function_calls            24112716                       # Number of function calls committed.
system.cpu0.commit.int_insts               1209814691                       # Number of committed integer instructions.
system.cpu0.commit.loads                    388696728                       # Number of loads committed
system.cpu0.commit.membars                    2104046                       # Number of memory barriers committed
system.cpu0.commit.op_class_0::No_OpClass      2104052      0.17%      0.17% # Class of committed instruction
system.cpu0.commit.op_class_0::IntAlu       699528280     55.89%     56.06% # Class of committed instruction
system.cpu0.commit.op_class_0::IntMult       11833132      0.95%     57.01% # Class of committed instruction
system.cpu0.commit.op_class_0::IntDiv         2099835      0.17%     57.17% # Class of committed instruction
system.cpu0.commit.op_class_0::FloatAdd             0      0.00%     57.17% # Class of committed instruction
system.cpu0.commit.op_class_0::FloatCmp             4      0.00%     57.17% # Class of committed instruction
system.cpu0.commit.op_class_0::FloatCvt            12      0.00%     57.17% # Class of committed instruction
system.cpu0.commit.op_class_0::FloatMult            0      0.00%     57.17% # Class of committed instruction
system.cpu0.commit.op_class_0::FloatMultAcc            0      0.00%     57.17% # Class of committed instruction
system.cpu0.commit.op_class_0::FloatDiv             2      0.00%     57.17% # Class of committed instruction
system.cpu0.commit.op_class_0::FloatMisc            4      0.00%     57.17% # Class of committed instruction
system.cpu0.commit.op_class_0::FloatSqrt            0      0.00%     57.17% # Class of committed instruction
system.cpu0.commit.op_class_0::SimdAdd              0      0.00%     57.17% # Class of committed instruction
system.cpu0.commit.op_class_0::SimdAddAcc            0      0.00%     57.17% # Class of committed instruction
system.cpu0.commit.op_class_0::SimdAlu              0      0.00%     57.17% # Class of committed instruction
system.cpu0.commit.op_class_0::SimdCmp              0      0.00%     57.17% # Class of committed instruction
system.cpu0.commit.op_class_0::SimdCvt              0      0.00%     57.17% # Class of committed instruction
system.cpu0.commit.op_class_0::SimdMisc             0      0.00%     57.17% # Class of committed instruction
system.cpu0.commit.op_class_0::SimdMult             0      0.00%     57.17% # Class of committed instruction
system.cpu0.commit.op_class_0::SimdMultAcc            0      0.00%     57.17% # Class of committed instruction
system.cpu0.commit.op_class_0::SimdShift            0      0.00%     57.17% # Class of committed instruction
system.cpu0.commit.op_class_0::SimdShiftAcc            0      0.00%     57.17% # Class of committed instruction
system.cpu0.commit.op_class_0::SimdDiv              0      0.00%     57.17% # Class of committed instruction
system.cpu0.commit.op_class_0::SimdSqrt             0      0.00%     57.17% # Class of committed instruction
system.cpu0.commit.op_class_0::SimdFloatAdd            0      0.00%     57.17% # Class of committed instruction
system.cpu0.commit.op_class_0::SimdFloatAlu            0      0.00%     57.17% # Class of committed instruction
system.cpu0.commit.op_class_0::SimdFloatCmp            0      0.00%     57.17% # Class of committed instruction
system.cpu0.commit.op_class_0::SimdFloatCvt            0      0.00%     57.17% # Class of committed instruction
system.cpu0.commit.op_class_0::SimdFloatDiv            0      0.00%     57.17% # Class of committed instruction
system.cpu0.commit.op_class_0::SimdFloatMisc            0      0.00%     57.17% # Class of committed instruction
system.cpu0.commit.op_class_0::SimdFloatMult            0      0.00%     57.17% # Class of committed instruction
system.cpu0.commit.op_class_0::SimdFloatMultAcc            0      0.00%     57.17% # Class of committed instruction
system.cpu0.commit.op_class_0::SimdFloatSqrt            0      0.00%     57.17% # Class of committed instruction
system.cpu0.commit.op_class_0::SimdReduceAdd            0      0.00%     57.17% # Class of committed instruction
system.cpu0.commit.op_class_0::SimdReduceAlu            0      0.00%     57.17% # Class of committed instruction
system.cpu0.commit.op_class_0::SimdReduceCmp            0      0.00%     57.17% # Class of committed instruction
system.cpu0.commit.op_class_0::SimdFloatReduceAdd            0      0.00%     57.17% # Class of committed instruction
system.cpu0.commit.op_class_0::SimdFloatReduceCmp            0      0.00%     57.17% # Class of committed instruction
system.cpu0.commit.op_class_0::SimdAes              0      0.00%     57.17% # Class of committed instruction
system.cpu0.commit.op_class_0::SimdAesMix            0      0.00%     57.17% # Class of committed instruction
system.cpu0.commit.op_class_0::SimdSha1Hash            0      0.00%     57.17% # Class of committed instruction
system.cpu0.commit.op_class_0::SimdSha1Hash2            0      0.00%     57.17% # Class of committed instruction
system.cpu0.commit.op_class_0::SimdSha256Hash            0      0.00%     57.17% # Class of committed instruction
system.cpu0.commit.op_class_0::SimdSha256Hash2            0      0.00%     57.17% # Class of committed instruction
system.cpu0.commit.op_class_0::SimdShaSigma2            0      0.00%     57.17% # Class of committed instruction
system.cpu0.commit.op_class_0::SimdShaSigma3            0      0.00%     57.17% # Class of committed instruction
system.cpu0.commit.op_class_0::SimdPredAlu            0      0.00%     57.17% # Class of committed instruction
system.cpu0.commit.op_class_0::MemRead      389747166     31.14%     88.31% # Class of committed instruction
system.cpu0.commit.op_class_0::MemWrite     146255771     11.69%    100.00% # Class of committed instruction
system.cpu0.commit.op_class_0::FloatMemRead            8      0.00%    100.00% # Class of committed instruction
system.cpu0.commit.op_class_0::FloatMemWrite           20      0.00%    100.00% # Class of committed instruction
system.cpu0.commit.op_class_0::IprAccess            0      0.00%    100.00% # Class of committed instruction
system.cpu0.commit.op_class_0::InstPrefetch            0      0.00%    100.00% # Class of committed instruction
system.cpu0.commit.op_class_0::total       1251568286                       # Class of committed instruction
system.cpu0.commit.refs                     536002965                       # Number of memory references committed
system.cpu0.commit.swp_count                        0                       # Number of s/w prefetches committed
system.cpu0.commit.vec_insts                        0                       # Number of committed Vector instructions.
system.cpu0.committedInsts                 1250514553                       # Number of Instructions Simulated
system.cpu0.committedOps                   1251568286                       # Number of Ops (including micro ops) Simulated
system.cpu0.cpi                              1.683082                       # CPI: Cycles Per Instruction
system.cpu0.cpi_total                        1.683082                       # CPI: Total CPI of All Threads
system.cpu0.decode.BlockedCycles            290677852                       # Number of cycles decode is blocked
system.cpu0.decode.BranchMispred              6106332                       # Number of times decode detected a branch misprediction
system.cpu0.decode.BranchResolved           167019589                       # Number of times decode resolved a branch
system.cpu0.decode.DecodedInsts            1317477628                       # Number of instructions handled by decode
system.cpu0.decode.IdleCycles               744600533                       # Number of cycles decode is idle
system.cpu0.decode.RunCycles                910774845                       # Number of cycles decode is running
system.cpu0.decode.SquashCycles               9406314                       # Number of cycles decode is squashing
system.cpu0.decode.SquashedInsts             13860550                       # Number of squashed instructions handled by decode
system.cpu0.decode.UnblockCycles              4376307                       # Number of cycles decode is unblocking
system.cpu0.dtb.accesses                            0                       # DTB accesses
system.cpu0.dtb.hits                                0                       # DTB hits
system.cpu0.dtb.misses                              0                       # DTB misses
system.cpu0.dtb.read_accesses                       0                       # DTB read accesses
system.cpu0.dtb.read_hits                           0                       # DTB read hits
system.cpu0.dtb.read_misses                         0                       # DTB read misses
system.cpu0.dtb.write_accesses                      0                       # DTB write accesses
system.cpu0.dtb.write_hits                          0                       # DTB write hits
system.cpu0.dtb.write_misses                        0                       # DTB write misses
system.cpu0.fetch.Branches                  328997190                       # Number of branches that fetch encountered
system.cpu0.fetch.CacheLines                233150671                       # Number of cache lines fetched
system.cpu0.fetch.Cycles                   1217009959                       # Number of cycles fetch has run and was not squashing or blocked
system.cpu0.fetch.IcacheSquashes              5615941                       # Number of outstanding Icache misses that were squashed
system.cpu0.fetch.IcacheWaitRetryStallCycles          107                       # Number of stall cycles due to full MSHR
system.cpu0.fetch.Insts                    1341307085                       # Number of instructions fetch has processed
system.cpu0.fetch.MiscStallCycles                  33                       # Number of cycles fetch has spent waiting on interrupts, or bad addresses, or out of MSHRs
system.cpu0.fetch.PendingTrapStallCycles          136                       # Number of stall cycles due to pending traps
system.cpu0.fetch.SquashCycles               30980906                       # Number of cycles fetch has spent squashing
system.cpu0.fetch.branchRate                 0.156314                       # Number of branch fetches per cycle
system.cpu0.fetch.icacheStallCycles         727335163                       # Number of cycles fetch is stalled on an Icache miss
system.cpu0.fetch.predictedBranches         190123708                       # Number of branches that fetch has predicted taken
system.cpu0.fetch.rate                       0.637286                       # Number of inst fetches per cycle
system.cpu0.fetch.rateDist::samples        1959835851                       # Number of instructions fetched each cycle (Total)
system.cpu0.fetch.rateDist::mean             0.684936                       # Number of instructions fetched each cycle (Total)
system.cpu0.fetch.rateDist::stdev            0.911640                       # Number of instructions fetched each cycle (Total)
system.cpu0.fetch.rateDist::underflows              0      0.00%      0.00% # Number of instructions fetched each cycle (Total)
system.cpu0.fetch.rateDist::0              1011795400     51.63%     51.63% # Number of instructions fetched each cycle (Total)
system.cpu0.fetch.rateDist::1               705193662     35.98%     87.61% # Number of instructions fetched each cycle (Total)
system.cpu0.fetch.rateDist::2               124191943      6.34%     93.95% # Number of instructions fetched each cycle (Total)
system.cpu0.fetch.rateDist::3                97256688      4.96%     98.91% # Number of instructions fetched each cycle (Total)
system.cpu0.fetch.rateDist::4                16559851      0.84%     99.75% # Number of instructions fetched each cycle (Total)
system.cpu0.fetch.rateDist::5                 2465220      0.13%     99.88% # Number of instructions fetched each cycle (Total)
system.cpu0.fetch.rateDist::6                  268046      0.01%     99.89% # Number of instructions fetched each cycle (Total)
system.cpu0.fetch.rateDist::7                     443      0.00%     99.89% # Number of instructions fetched each cycle (Total)
system.cpu0.fetch.rateDist::8                 2104598      0.11%    100.00% # Number of instructions fetched each cycle (Total)
system.cpu0.fetch.rateDist::overflows               0      0.00%    100.00% # Number of instructions fetched each cycle (Total)
system.cpu0.fetch.rateDist::min_value               0                       # Number of instructions fetched each cycle (Total)
system.cpu0.fetch.rateDist::max_value               8                       # Number of instructions fetched each cycle (Total)
system.cpu0.fetch.rateDist::total          1959835851                       # Number of instructions fetched each cycle (Total)
system.cpu0.fp_regfile_reads                       44                       # number of floating regfile reads
system.cpu0.fp_regfile_writes                      24                       # number of floating regfile writes
system.cpu0.idleCycles                      144882271                       # Total number of cycles that the CPU has spent unscheduled due to idling
system.cpu0.iew.branchMispredicts             9473053                       # Number of branch mispredicts detected at execute
system.cpu0.iew.exec_branches               319347742                       # Number of branches executed
system.cpu0.iew.exec_nop                            0                       # number of nop insts executed
system.cpu0.iew.exec_rate                    0.614256                       # Inst execution rate
system.cpu0.iew.exec_refs                   562644402                       # number of memory reference insts executed
system.cpu0.iew.exec_stores                 151321107                       # Number of stores executed
system.cpu0.iew.exec_swp                            0                       # number of swp insts executed
system.cpu0.iew.iewBlockCycles              218218581                       # Number of cycles IEW is blocking
system.cpu0.iew.iewDispLoadInsts            408588980                       # Number of dispatched load instructions
system.cpu0.iew.iewDispNonSpecInsts           1056769                       # Number of dispatched non-speculative instructions
system.cpu0.iew.iewDispSquashedInsts          5553241                       # Number of squashed instructions skipped by dispatch
system.cpu0.iew.iewDispStoreInsts           151908493                       # Number of dispatched store instructions
system.cpu0.iew.iewDispatchedInsts         1297360528                       # Number of instructions dispatched to IQ
system.cpu0.iew.iewExecLoadInsts            411323295                       # Number of load instructions executed
system.cpu0.iew.iewExecSquashedInsts          5106298                       # Number of squashed instructions skipped in execute
system.cpu0.iew.iewExecutedInsts           1292835964                       # Number of executed instructions
system.cpu0.iew.iewIQFullEvents               1042946                       # Number of times the IQ has become full, causing a stall
system.cpu0.iew.iewIdleCycles                       0                       # Number of cycles IEW is idle
system.cpu0.iew.iewLSQFullEvents              6767440                       # Number of times the LSQ has become full, causing a stall
system.cpu0.iew.iewSquashCycles               9406314                       # Number of cycles IEW is squashing
system.cpu0.iew.iewUnblockCycles              9065990                       # Number of cycles IEW is unblocking
system.cpu0.iew.lsq.thread0.blockedLoads            0                       # Number of blocked loads due to partial load-store forwarding
system.cpu0.iew.lsq.thread0.cacheBlocked       380859                       # Number of times an access to memory failed due to the cache being blocked
system.cpu0.iew.lsq.thread0.forwLoads        21864150                       # Number of loads that had data forwarded from stores
system.cpu0.iew.lsq.thread0.ignoredResponses        74002                       # Number of memory responses ignored because the instruction is squashed
system.cpu0.iew.lsq.thread0.invAddrLoads            0                       # Number of loads ignored due to an invalid address
system.cpu0.iew.lsq.thread0.invAddrSwpfs            0                       # Number of software prefetches ignored due to an invalid address
system.cpu0.iew.lsq.thread0.memOrderViolation         7109                       # Number of memory ordering violations
system.cpu0.iew.lsq.thread0.rescheduledLoads      4814479                       # Number of loads that were rescheduled
system.cpu0.iew.lsq.thread0.squashedLoads     19892252                       # Number of loads squashed
system.cpu0.iew.lsq.thread0.squashedStores      4602256                       # Number of stores squashed
system.cpu0.iew.memOrderViolationEvents          7109                       # Number of memory order violations
system.cpu0.iew.predictedNotTakenIncorrect       407211                       # Number of branches that were predicted not taken incorrectly
system.cpu0.iew.predictedTakenIncorrect       9065842                       # Number of branches that were predicted taken incorrectly
system.cpu0.iew.wb_consumers                594943647                       # num instructions consuming a value
system.cpu0.iew.wb_count                   1283597548                       # cumulative count of insts written-back
system.cpu0.iew.wb_fanout                    0.838262                       # average fanout of values written-back
system.cpu0.iew.wb_producers                498718777                       # num instructions producing a value
system.cpu0.iew.wb_rate                      0.609867                       # insts written-back per cycle
system.cpu0.iew.wb_sent                    1283677317                       # cumulative count of insts sent to commit
system.cpu0.int_regfile_reads              1586257780                       # number of integer regfile reads
system.cpu0.int_regfile_writes              823154927                       # number of integer regfile writes
system.cpu0.ipc                              0.594148                       # IPC: Instructions Per Cycle
system.cpu0.ipc_total                        0.594148                       # IPC: Total IPC of All Threads
system.cpu0.iq.FU_type_0::No_OpClass          2106107      0.16%      0.16% # Type of FU issued
system.cpu0.iq.FU_type_0::IntAlu            717051022     55.25%     55.41% # Type of FU issued
system.cpu0.iq.FU_type_0::IntMult            11848835      0.91%     56.32% # Type of FU issued
system.cpu0.iq.FU_type_0::IntDiv              2100412      0.16%     56.48% # Type of FU issued
system.cpu0.iq.FU_type_0::FloatAdd                  0      0.00%     56.48% # Type of FU issued
system.cpu0.iq.FU_type_0::FloatCmp                  4      0.00%     56.48% # Type of FU issued
system.cpu0.iq.FU_type_0::FloatCvt                 12      0.00%     56.48% # Type of FU issued
system.cpu0.iq.FU_type_0::FloatMult                 0      0.00%     56.48% # Type of FU issued
system.cpu0.iq.FU_type_0::FloatMultAcc              0      0.00%     56.48% # Type of FU issued
system.cpu0.iq.FU_type_0::FloatDiv                  2      0.00%     56.48% # Type of FU issued
system.cpu0.iq.FU_type_0::FloatMisc                 4      0.00%     56.48% # Type of FU issued
system.cpu0.iq.FU_type_0::FloatSqrt                 0      0.00%     56.48% # Type of FU issued
system.cpu0.iq.FU_type_0::SimdAdd                   0      0.00%     56.48% # Type of FU issued
system.cpu0.iq.FU_type_0::SimdAddAcc                0      0.00%     56.48% # Type of FU issued
system.cpu0.iq.FU_type_0::SimdAlu                   0      0.00%     56.48% # Type of FU issued
system.cpu0.iq.FU_type_0::SimdCmp                   0      0.00%     56.48% # Type of FU issued
system.cpu0.iq.FU_type_0::SimdCvt                   0      0.00%     56.48% # Type of FU issued
system.cpu0.iq.FU_type_0::SimdMisc                  0      0.00%     56.48% # Type of FU issued
system.cpu0.iq.FU_type_0::SimdMult                  0      0.00%     56.48% # Type of FU issued
system.cpu0.iq.FU_type_0::SimdMultAcc               0      0.00%     56.48% # Type of FU issued
system.cpu0.iq.FU_type_0::SimdShift                 0      0.00%     56.48% # Type of FU issued
system.cpu0.iq.FU_type_0::SimdShiftAcc              0      0.00%     56.48% # Type of FU issued
system.cpu0.iq.FU_type_0::SimdDiv                   0      0.00%     56.48% # Type of FU issued
system.cpu0.iq.FU_type_0::SimdSqrt                  0      0.00%     56.48% # Type of FU issued
system.cpu0.iq.FU_type_0::SimdFloatAdd              0      0.00%     56.48% # Type of FU issued
system.cpu0.iq.FU_type_0::SimdFloatAlu              0      0.00%     56.48% # Type of FU issued
system.cpu0.iq.FU_type_0::SimdFloatCmp              0      0.00%     56.48% # Type of FU issued
system.cpu0.iq.FU_type_0::SimdFloatCvt              0      0.00%     56.48% # Type of FU issued
system.cpu0.iq.FU_type_0::SimdFloatDiv              0      0.00%     56.48% # Type of FU issued
system.cpu0.iq.FU_type_0::SimdFloatMisc             0      0.00%     56.48% # Type of FU issued
system.cpu0.iq.FU_type_0::SimdFloatMult             0      0.00%     56.48% # Type of FU issued
system.cpu0.iq.FU_type_0::SimdFloatMultAcc            0      0.00%     56.48% # Type of FU issued
system.cpu0.iq.FU_type_0::SimdFloatSqrt             0      0.00%     56.48% # Type of FU issued
system.cpu0.iq.FU_type_0::SimdReduceAdd             0      0.00%     56.48% # Type of FU issued
system.cpu0.iq.FU_type_0::SimdReduceAlu             0      0.00%     56.48% # Type of FU issued
system.cpu0.iq.FU_type_0::SimdReduceCmp             0      0.00%     56.48% # Type of FU issued
system.cpu0.iq.FU_type_0::SimdFloatReduceAdd            0      0.00%     56.48% # Type of FU issued
system.cpu0.iq.FU_type_0::SimdFloatReduceCmp            0      0.00%     56.48% # Type of FU issued
system.cpu0.iq.FU_type_0::SimdAes                   0      0.00%     56.48% # Type of FU issued
system.cpu0.iq.FU_type_0::SimdAesMix                0      0.00%     56.48% # Type of FU issued
system.cpu0.iq.FU_type_0::SimdSha1Hash              0      0.00%     56.48% # Type of FU issued
system.cpu0.iq.FU_type_0::SimdSha1Hash2             0      0.00%     56.48% # Type of FU issued
system.cpu0.iq.FU_type_0::SimdSha256Hash            0      0.00%     56.48% # Type of FU issued
system.cpu0.iq.FU_type_0::SimdSha256Hash2            0      0.00%     56.48% # Type of FU issued
system.cpu0.iq.FU_type_0::SimdShaSigma2             0      0.00%     56.48% # Type of FU issued
system.cpu0.iq.FU_type_0::SimdShaSigma3             0      0.00%     56.48% # Type of FU issued
system.cpu0.iq.FU_type_0::SimdPredAlu               0      0.00%     56.48% # Type of FU issued
system.cpu0.iq.FU_type_0::MemRead           414363520     31.92%     88.41% # Type of FU issued
system.cpu0.iq.FU_type_0::MemWrite          150472314     11.59%    100.00% # Type of FU issued
system.cpu0.iq.FU_type_0::FloatMemRead             10      0.00%    100.00% # Type of FU issued
system.cpu0.iq.FU_type_0::FloatMemWrite            20      0.00%    100.00% # Type of FU issued
system.cpu0.iq.FU_type_0::IprAccess                 0      0.00%    100.00% # Type of FU issued
system.cpu0.iq.FU_type_0::InstPrefetch              0      0.00%    100.00% # Type of FU issued
system.cpu0.iq.FU_type_0::total            1297942262                       # Type of FU issued
system.cpu0.iq.fp_alu_accesses                     56                       # Number of floating point alu accesses
system.cpu0.iq.fp_inst_queue_reads                108                       # Number of floating instruction queue reads
system.cpu0.iq.fp_inst_queue_wakeup_accesses           52                       # Number of floating instruction queue wakeup accesses
system.cpu0.iq.fp_inst_queue_writes                54                       # Number of floating instruction queue writes
system.cpu0.iq.fu_busy_cnt                    1859755                       # FU busy when requested
system.cpu0.iq.fu_busy_rate                  0.001433                       # FU busy rate (busy events/executed inst)
system.cpu0.iq.fu_full::No_OpClass                  0      0.00%      0.00% # attempts to use FU when none available
system.cpu0.iq.fu_full::IntAlu                 354882     19.08%     19.08% # attempts to use FU when none available
system.cpu0.iq.fu_full::IntMult                    22      0.00%     19.08% # attempts to use FU when none available
system.cpu0.iq.fu_full::IntDiv                      0      0.00%     19.08% # attempts to use FU when none available
system.cpu0.iq.fu_full::FloatAdd                    0      0.00%     19.08% # attempts to use FU when none available
system.cpu0.iq.fu_full::FloatCmp                    0      0.00%     19.08% # attempts to use FU when none available
system.cpu0.iq.fu_full::FloatCvt                    0      0.00%     19.08% # attempts to use FU when none available
system.cpu0.iq.fu_full::FloatMult                   0      0.00%     19.08% # attempts to use FU when none available
system.cpu0.iq.fu_full::FloatMultAcc                0      0.00%     19.08% # attempts to use FU when none available
system.cpu0.iq.fu_full::FloatDiv                    0      0.00%     19.08% # attempts to use FU when none available
system.cpu0.iq.fu_full::FloatMisc                   0      0.00%     19.08% # attempts to use FU when none available
system.cpu0.iq.fu_full::FloatSqrt                   0      0.00%     19.08% # attempts to use FU when none available
system.cpu0.iq.fu_full::SimdAdd                     0      0.00%     19.08% # attempts to use FU when none available
system.cpu0.iq.fu_full::SimdAddAcc                  0      0.00%     19.08% # attempts to use FU when none available
system.cpu0.iq.fu_full::SimdAlu                     0      0.00%     19.08% # attempts to use FU when none available
system.cpu0.iq.fu_full::SimdCmp                     0      0.00%     19.08% # attempts to use FU when none available
system.cpu0.iq.fu_full::SimdCvt                     0      0.00%     19.08% # attempts to use FU when none available
system.cpu0.iq.fu_full::SimdMisc                    0      0.00%     19.08% # attempts to use FU when none available
system.cpu0.iq.fu_full::SimdMult                    0      0.00%     19.08% # attempts to use FU when none available
system.cpu0.iq.fu_full::SimdMultAcc                 0      0.00%     19.08% # attempts to use FU when none available
system.cpu0.iq.fu_full::SimdShift                   0      0.00%     19.08% # attempts to use FU when none available
system.cpu0.iq.fu_full::SimdShiftAcc                0      0.00%     19.08% # attempts to use FU when none available
system.cpu0.iq.fu_full::SimdDiv                     0      0.00%     19.08% # attempts to use FU when none available
system.cpu0.iq.fu_full::SimdSqrt                    0      0.00%     19.08% # attempts to use FU when none available
system.cpu0.iq.fu_full::SimdFloatAdd                0      0.00%     19.08% # attempts to use FU when none available
system.cpu0.iq.fu_full::SimdFloatAlu                0      0.00%     19.08% # attempts to use FU when none available
system.cpu0.iq.fu_full::SimdFloatCmp                0      0.00%     19.08% # attempts to use FU when none available
system.cpu0.iq.fu_full::SimdFloatCvt                0      0.00%     19.08% # attempts to use FU when none available
system.cpu0.iq.fu_full::SimdFloatDiv                0      0.00%     19.08% # attempts to use FU when none available
system.cpu0.iq.fu_full::SimdFloatMisc               0      0.00%     19.08% # attempts to use FU when none available
system.cpu0.iq.fu_full::SimdFloatMult               0      0.00%     19.08% # attempts to use FU when none available
system.cpu0.iq.fu_full::SimdFloatMultAcc            0      0.00%     19.08% # attempts to use FU when none available
system.cpu0.iq.fu_full::SimdFloatSqrt               0      0.00%     19.08% # attempts to use FU when none available
system.cpu0.iq.fu_full::SimdReduceAdd               0      0.00%     19.08% # attempts to use FU when none available
system.cpu0.iq.fu_full::SimdReduceAlu               0      0.00%     19.08% # attempts to use FU when none available
system.cpu0.iq.fu_full::SimdReduceCmp               0      0.00%     19.08% # attempts to use FU when none available
system.cpu0.iq.fu_full::SimdFloatReduceAdd            0      0.00%     19.08% # attempts to use FU when none available
system.cpu0.iq.fu_full::SimdFloatReduceCmp            0      0.00%     19.08% # attempts to use FU when none available
system.cpu0.iq.fu_full::SimdAes                     0      0.00%     19.08% # attempts to use FU when none available
system.cpu0.iq.fu_full::SimdAesMix                  0      0.00%     19.08% # attempts to use FU when none available
system.cpu0.iq.fu_full::SimdSha1Hash                0      0.00%     19.08% # attempts to use FU when none available
system.cpu0.iq.fu_full::SimdSha1Hash2               0      0.00%     19.08% # attempts to use FU when none available
system.cpu0.iq.fu_full::SimdSha256Hash              0      0.00%     19.08% # attempts to use FU when none available
system.cpu0.iq.fu_full::SimdSha256Hash2             0      0.00%     19.08% # attempts to use FU when none available
system.cpu0.iq.fu_full::SimdShaSigma2               0      0.00%     19.08% # attempts to use FU when none available
system.cpu0.iq.fu_full::SimdShaSigma3               0      0.00%     19.08% # attempts to use FU when none available
system.cpu0.iq.fu_full::SimdPredAlu                 0      0.00%     19.08% # attempts to use FU when none available
system.cpu0.iq.fu_full::MemRead               1209617     65.04%     84.13% # attempts to use FU when none available
system.cpu0.iq.fu_full::MemWrite               295230     15.87%    100.00% # attempts to use FU when none available
system.cpu0.iq.fu_full::FloatMemRead                0      0.00%    100.00% # attempts to use FU when none available
system.cpu0.iq.fu_full::FloatMemWrite               4      0.00%    100.00% # attempts to use FU when none available
system.cpu0.iq.fu_full::IprAccess                   0      0.00%    100.00% # attempts to use FU when none available
system.cpu0.iq.fu_full::InstPrefetch                0      0.00%    100.00% # attempts to use FU when none available
system.cpu0.iq.int_alu_accesses            1297695854                       # Number of integer alu accesses
system.cpu0.iq.int_inst_queue_reads        4557712027                       # Number of integer instruction queue reads
system.cpu0.iq.int_inst_queue_wakeup_accesses   1283597496                       # Number of integer instruction queue wakeup accesses
system.cpu0.iq.int_inst_queue_writes       1343159584                       # Number of integer instruction queue writes
system.cpu0.iq.iqInstsAdded                1294199536                       # Number of instructions added to the IQ (excludes non-spec)
system.cpu0.iq.iqInstsIssued               1297942262                       # Number of instructions issued
system.cpu0.iq.iqNonSpecInstsAdded            3160992                       # Number of non-speculative instructions added to the IQ
system.cpu0.iq.iqSquashedInstsExamined       45792239                       # Number of squashed instructions iterated over during squash; mainly for profiling
system.cpu0.iq.iqSquashedInstsIssued           132005                       # Number of squashed instructions issued
system.cpu0.iq.iqSquashedNonSpecRemoved           417                       # Number of squashed non-spec instructions that were removed
system.cpu0.iq.iqSquashedOperandsExamined     13671831                       # Number of squashed operands that are examined and possibly removed from graph
system.cpu0.iq.issued_per_cycle::samples   1959835851                       # Number of insts issued each cycle
system.cpu0.iq.issued_per_cycle::mean        0.662271                       # Number of insts issued each cycle
system.cpu0.iq.issued_per_cycle::stdev       0.869953                       # Number of insts issued each cycle
system.cpu0.iq.issued_per_cycle::underflows            0      0.00%      0.00% # Number of insts issued each cycle
system.cpu0.iq.issued_per_cycle::0         1059239050     54.05%     54.05% # Number of insts issued each cycle
system.cpu0.iq.issued_per_cycle::1          605529386     30.90%     84.94% # Number of insts issued each cycle
system.cpu0.iq.issued_per_cycle::2          208462184     10.64%     95.58% # Number of insts issued each cycle
system.cpu0.iq.issued_per_cycle::3           75283610      3.84%     99.42% # Number of insts issued each cycle
system.cpu0.iq.issued_per_cycle::4            8935958      0.46%     99.88% # Number of insts issued each cycle
system.cpu0.iq.issued_per_cycle::5            1066669      0.05%     99.93% # Number of insts issued each cycle
system.cpu0.iq.issued_per_cycle::6             856623      0.04%     99.98% # Number of insts issued each cycle
system.cpu0.iq.issued_per_cycle::7             278205      0.01%     99.99% # Number of insts issued each cycle
system.cpu0.iq.issued_per_cycle::8             184166      0.01%    100.00% # Number of insts issued each cycle
system.cpu0.iq.issued_per_cycle::overflows            0      0.00%    100.00% # Number of insts issued each cycle
system.cpu0.iq.issued_per_cycle::min_value            0                       # Number of insts issued each cycle
system.cpu0.iq.issued_per_cycle::max_value            8                       # Number of insts issued each cycle
system.cpu0.iq.issued_per_cycle::total     1959835851                       # Number of insts issued each cycle
system.cpu0.iq.rate                          0.616682                       # Inst issue rate
system.cpu0.iq.vec_alu_accesses                     0                       # Number of vector alu accesses
system.cpu0.iq.vec_inst_queue_reads                 0                       # Number of vector instruction queue reads
system.cpu0.iq.vec_inst_queue_wakeup_accesses            0                       # Number of vector instruction queue wakeup accesses
system.cpu0.iq.vec_inst_queue_writes                0                       # Number of vector instruction queue writes
system.cpu0.itb.accesses                            0                       # DTB accesses
system.cpu0.itb.hits                                0                       # DTB hits
system.cpu0.itb.misses                              0                       # DTB misses
system.cpu0.itb.read_accesses                       0                       # DTB read accesses
system.cpu0.itb.read_hits                           0                       # DTB read hits
system.cpu0.itb.read_misses                         0                       # DTB read misses
system.cpu0.itb.write_accesses                      0                       # DTB write accesses
system.cpu0.itb.write_hits                          0                       # DTB write hits
system.cpu0.itb.write_misses                        0                       # DTB write misses
system.cpu0.memDep0.conflictingLoads         11365667                       # Number of conflicting loads.
system.cpu0.memDep0.conflictingStores         2674907                       # Number of conflicting stores.
system.cpu0.memDep0.insertedLoads           408588980                       # Number of loads inserted to the mem dependence unit.
system.cpu0.memDep0.insertedStores          151908493                       # Number of stores inserted to the mem dependence unit.
system.cpu0.misc_regfile_reads                   2066                       # number of misc regfile reads
system.cpu0.misc_regfile_writes                    22                       # number of misc regfile writes
system.cpu0.numCycles                      2104718122                       # number of cpu cycles simulated
system.cpu0.numWorkItemsCompleted                   0                       # number of work items this cpu completed
system.cpu0.numWorkItemsStarted                     0                       # number of work items this cpu started
system.cpu0.quiesceCycles                    11167589                       # Total number of cycles that CPU has spent quiesced or waiting for an interrupt
system.cpu0.rename.BlockCycles              235542826                       # Number of cycles rename is blocking
system.cpu0.rename.CommittedMaps            800541243                       # Number of HB maps that are committed
system.cpu0.rename.IQFullEvents               7350155                       # Number of times rename has blocked due to IQ full
system.cpu0.rename.IdleCycles               756436333                       # Number of cycles rename is idle
system.cpu0.rename.LQFullEvents              16975500                       # Number of times rename has blocked due to LQ full
system.cpu0.rename.ROBFullEvents                12074                       # Number of times rename has blocked due to ROB full
system.cpu0.rename.RenameLookups           1610209802                       # Number of register rename lookups that rename has made
system.cpu0.rename.RenamedInsts            1312294757                       # Number of instructions processed by rename
system.cpu0.rename.RenamedOperands          847015227                       # Number of destination operands rename has renamed
system.cpu0.rename.RunCycles                902384182                       # Number of cycles rename is running
system.cpu0.rename.SQFullEvents              30837617                       # Number of times rename has blocked due to SQ full
system.cpu0.rename.SquashCycles               9406314                       # Number of cycles rename is squashing
system.cpu0.rename.UnblockCycles             55893970                       # Number of cycles rename is unblocking
system.cpu0.rename.UndoneMaps                46473980                       # Number of HB maps that are undone due to squashing
system.cpu0.rename.fp_rename_lookups               44                       # Number of floating rename lookups
system.cpu0.rename.int_rename_lookups      1610209758                       # Number of integer rename lookups
system.cpu0.rename.serializeStallCycles        172226                       # count of cycles rename stalled for serializing inst
system.cpu0.rename.serializingInsts              6231                       # count of serializing insts renamed
system.cpu0.rename.skidInsts                 19191164                       # count of insts added to the skid buffer
system.cpu0.rename.tempSerializingInsts          6215                       # count of temporary serializing insts renamed
system.cpu0.rob.rob_reads                  3210030505                       # The number of ROB reads
system.cpu0.rob.rob_writes                 2608177160                       # The number of ROB writes
system.cpu0.timesIdled                       22384317                       # Number of times that the entire CPU went into an idle state and unscheduled itself
system.cpu0.workload.numSyscalls                 2033                       # Number of system calls
system.cpu1.branchPred.BTBCorrect                   0                       # Number of correct BTB predictions (this stat may not work properly.
system.cpu1.branchPred.BTBHitPct            87.153144                       # BTB Hit Percentage
system.cpu1.branchPred.BTBHits               14914406                       # Number of BTB hits
system.cpu1.branchPred.BTBLookups            17112872                       # Number of BTB lookups
system.cpu1.branchPred.RASInCorrect                 0                       # Number of incorrect RAS predictions.
system.cpu1.branchPred.condIncorrect          2838415                       # Number of conditional branches incorrect
system.cpu1.branchPred.condPredicted         22284805                       # Number of conditional branches predicted
system.cpu1.branchPred.indirectHits            670906                       # Number of indirect target hits.
system.cpu1.branchPred.indirectLookups         683729                       # Number of indirect predictor lookups.
system.cpu1.branchPred.indirectMisses           12823                       # Number of indirect misses.
system.cpu1.branchPred.lookups               25844340                       # Number of BP lookups
system.cpu1.branchPred.usedRAS                      0                       # Number of times the RAS was used to get a target.
system.cpu1.branchPredindirectMispredicted        41695                       # Number of mispredicted indirect branches.
system.cpu1.commit.amos                       1050239                       # Number of atomic instructions committed
system.cpu1.commit.branchMispredicts          1845074                       # The number of times a branch was mispredicted
system.cpu1.commit.branches                  16229023                       # Number of branches committed
system.cpu1.commit.bw_lim_events              2028961                       # number cycles where commit BW limit reached
system.cpu1.commit.commitNonSpecStalls        3151440                       # The number of times commit has been forced to stall to communicate backwards
system.cpu1.commit.commitSquashedInsts       28055405                       # The number of squashed insts skipped by commit
system.cpu1.commit.committedInsts            67680347                       # Number of instructions committed
system.cpu1.commit.committedOps              68730799                       # Number of ops (including micro ops) committed
system.cpu1.commit.committed_per_cycle::samples    302406624                       # Number of insts commited each cycle
system.cpu1.commit.committed_per_cycle::mean     0.227279                       # Number of insts commited each cycle
system.cpu1.commit.committed_per_cycle::stdev     0.944469                       # Number of insts commited each cycle
system.cpu1.commit.committed_per_cycle::underflows            0      0.00%      0.00% # Number of insts commited each cycle
system.cpu1.commit.committed_per_cycle::0    273711304     90.51%     90.51% # Number of insts commited each cycle
system.cpu1.commit.committed_per_cycle::1     14403993      4.76%     95.27% # Number of insts commited each cycle
system.cpu1.commit.committed_per_cycle::2      5224683      1.73%     97.00% # Number of insts commited each cycle
system.cpu1.commit.committed_per_cycle::3      4061758      1.34%     98.34% # Number of insts commited each cycle
system.cpu1.commit.committed_per_cycle::4      1113863      0.37%     98.71% # Number of insts commited each cycle
system.cpu1.commit.committed_per_cycle::5       490878      0.16%     98.88% # Number of insts commited each cycle
system.cpu1.commit.committed_per_cycle::6      1047652      0.35%     99.22% # Number of insts commited each cycle
system.cpu1.commit.committed_per_cycle::7       323532      0.11%     99.33% # Number of insts commited each cycle
system.cpu1.commit.committed_per_cycle::8      2028961      0.67%    100.00% # Number of insts commited each cycle
system.cpu1.commit.committed_per_cycle::overflows            0      0.00%    100.00% # Number of insts commited each cycle
system.cpu1.commit.committed_per_cycle::min_value            0                       # Number of insts commited each cycle
system.cpu1.commit.committed_per_cycle::max_value            8                       # Number of insts commited each cycle
system.cpu1.commit.committed_per_cycle::total    302406624                       # Number of insts commited each cycle
system.cpu1.commit.fp_insts                        12                       # Number of committed floating point instructions.
system.cpu1.commit.function_calls             1074848                       # Number of function calls committed.
system.cpu1.commit.int_insts                 65715252                       # Number of committed integer instructions.
system.cpu1.commit.loads                     16752170                       # Number of loads committed
system.cpu1.commit.membars                    2100545                       # Number of memory barriers committed
system.cpu1.commit.op_class_0::No_OpClass      2100545      3.06%      3.06% # Class of committed instruction
system.cpu1.commit.op_class_0::IntAlu        43602577     63.44%     66.50% # Class of committed instruction
system.cpu1.commit.op_class_0::IntMult             44      0.00%     66.50% # Class of committed instruction
system.cpu1.commit.op_class_0::IntDiv              88      0.00%     66.50% # Class of committed instruction
system.cpu1.commit.op_class_0::FloatAdd             0      0.00%     66.50% # Class of committed instruction
system.cpu1.commit.op_class_0::FloatCmp             0      0.00%     66.50% # Class of committed instruction
system.cpu1.commit.op_class_0::FloatCvt             0      0.00%     66.50% # Class of committed instruction
system.cpu1.commit.op_class_0::FloatMult            0      0.00%     66.50% # Class of committed instruction
system.cpu1.commit.op_class_0::FloatMultAcc            0      0.00%     66.50% # Class of committed instruction
system.cpu1.commit.op_class_0::FloatDiv             0      0.00%     66.50% # Class of committed instruction
system.cpu1.commit.op_class_0::FloatMisc            0      0.00%     66.50% # Class of committed instruction
system.cpu1.commit.op_class_0::FloatSqrt            0      0.00%     66.50% # Class of committed instruction
system.cpu1.commit.op_class_0::SimdAdd              0      0.00%     66.50% # Class of committed instruction
system.cpu1.commit.op_class_0::SimdAddAcc            0      0.00%     66.50% # Class of committed instruction
system.cpu1.commit.op_class_0::SimdAlu              0      0.00%     66.50% # Class of committed instruction
system.cpu1.commit.op_class_0::SimdCmp              0      0.00%     66.50% # Class of committed instruction
system.cpu1.commit.op_class_0::SimdCvt              0      0.00%     66.50% # Class of committed instruction
system.cpu1.commit.op_class_0::SimdMisc             0      0.00%     66.50% # Class of committed instruction
system.cpu1.commit.op_class_0::SimdMult             0      0.00%     66.50% # Class of committed instruction
system.cpu1.commit.op_class_0::SimdMultAcc            0      0.00%     66.50% # Class of committed instruction
system.cpu1.commit.op_class_0::SimdShift            0      0.00%     66.50% # Class of committed instruction
system.cpu1.commit.op_class_0::SimdShiftAcc            0      0.00%     66.50% # Class of committed instruction
system.cpu1.commit.op_class_0::SimdDiv              0      0.00%     66.50% # Class of committed instruction
system.cpu1.commit.op_class_0::SimdSqrt             0      0.00%     66.50% # Class of committed instruction
system.cpu1.commit.op_class_0::SimdFloatAdd            0      0.00%     66.50% # Class of committed instruction
system.cpu1.commit.op_class_0::SimdFloatAlu            0      0.00%     66.50% # Class of committed instruction
system.cpu1.commit.op_class_0::SimdFloatCmp            0      0.00%     66.50% # Class of committed instruction
system.cpu1.commit.op_class_0::SimdFloatCvt            0      0.00%     66.50% # Class of committed instruction
system.cpu1.commit.op_class_0::SimdFloatDiv            0      0.00%     66.50% # Class of committed instruction
system.cpu1.commit.op_class_0::SimdFloatMisc            0      0.00%     66.50% # Class of committed instruction
system.cpu1.commit.op_class_0::SimdFloatMult            0      0.00%     66.50% # Class of committed instruction
system.cpu1.commit.op_class_0::SimdFloatMultAcc            0      0.00%     66.50% # Class of committed instruction
system.cpu1.commit.op_class_0::SimdFloatSqrt            0      0.00%     66.50% # Class of committed instruction
system.cpu1.commit.op_class_0::SimdReduceAdd            0      0.00%     66.50% # Class of committed instruction
system.cpu1.commit.op_class_0::SimdReduceAlu            0      0.00%     66.50% # Class of committed instruction
system.cpu1.commit.op_class_0::SimdReduceCmp            0      0.00%     66.50% # Class of committed instruction
system.cpu1.commit.op_class_0::SimdFloatReduceAdd            0      0.00%     66.50% # Class of committed instruction
system.cpu1.commit.op_class_0::SimdFloatReduceCmp            0      0.00%     66.50% # Class of committed instruction
system.cpu1.commit.op_class_0::SimdAes              0      0.00%     66.50% # Class of committed instruction
system.cpu1.commit.op_class_0::SimdAesMix            0      0.00%     66.50% # Class of committed instruction
system.cpu1.commit.op_class_0::SimdSha1Hash            0      0.00%     66.50% # Class of committed instruction
system.cpu1.commit.op_class_0::SimdSha1Hash2            0      0.00%     66.50% # Class of committed instruction
system.cpu1.commit.op_class_0::SimdSha256Hash            0      0.00%     66.50% # Class of committed instruction
system.cpu1.commit.op_class_0::SimdSha256Hash2            0      0.00%     66.50% # Class of committed instruction
system.cpu1.commit.op_class_0::SimdShaSigma2            0      0.00%     66.50% # Class of committed instruction
system.cpu1.commit.op_class_0::SimdShaSigma3            0      0.00%     66.50% # Class of committed instruction
system.cpu1.commit.op_class_0::SimdPredAlu            0      0.00%     66.50% # Class of committed instruction
system.cpu1.commit.op_class_0::MemRead       17802409     25.90%     92.40% # Class of committed instruction
system.cpu1.commit.op_class_0::MemWrite       5225124      7.60%    100.00% # Class of committed instruction
system.cpu1.commit.op_class_0::FloatMemRead            0      0.00%    100.00% # Class of committed instruction
system.cpu1.commit.op_class_0::FloatMemWrite           12      0.00%    100.00% # Class of committed instruction
system.cpu1.commit.op_class_0::IprAccess            0      0.00%    100.00% # Class of committed instruction
system.cpu1.commit.op_class_0::InstPrefetch            0      0.00%    100.00% # Class of committed instruction
system.cpu1.commit.op_class_0::total         68730799                       # Class of committed instruction
system.cpu1.commit.refs                      23027545                       # Number of memory references committed
system.cpu1.commit.swp_count                        0                       # Number of s/w prefetches committed
system.cpu1.commit.vec_insts                        0                       # Number of committed Vector instructions.
system.cpu1.committedInsts                   67680347                       # Number of Instructions Simulated
system.cpu1.committedOps                     68730799                       # Number of Ops (including micro ops) Simulated
system.cpu1.cpi                              4.574694                       # CPI: Cycles Per Instruction
system.cpu1.cpi_total                        4.574694                       # CPI: Total CPI of All Threads
system.cpu1.decode.BlockedCycles            231104717                       # Number of cycles decode is blocked
system.cpu1.decode.BranchMispred              1022260                       # Number of times decode detected a branch misprediction
system.cpu1.decode.BranchResolved            13534723                       # Number of times decode resolved a branch
system.cpu1.decode.DecodedInsts             103819508                       # Number of instructions handled by decode
system.cpu1.decode.IdleCycles                21346063                       # Number of cycles decode is idle
system.cpu1.decode.RunCycles                 50023585                       # Number of cycles decode is running
system.cpu1.decode.SquashCycles               1846564                       # Number of cycles decode is squashing
system.cpu1.decode.SquashedInsts              1761617                       # Number of squashed instructions handled by decode
system.cpu1.decode.UnblockCycles              2950217                       # Number of cycles decode is unblocking
system.cpu1.dtb.accesses                            0                       # DTB accesses
system.cpu1.dtb.hits                                0                       # DTB hits
system.cpu1.dtb.misses                              0                       # DTB misses
system.cpu1.dtb.read_accesses                       0                       # DTB read accesses
system.cpu1.dtb.read_hits                           0                       # DTB read hits
system.cpu1.dtb.read_misses                         0                       # DTB read misses
system.cpu1.dtb.write_accesses                      0                       # DTB write accesses
system.cpu1.dtb.write_hits                          0                       # DTB write hits
system.cpu1.dtb.write_misses                        0                       # DTB write misses
system.cpu1.fetch.Branches                   25844340                       # Number of branches that fetch encountered
system.cpu1.fetch.CacheLines                 19241711                       # Number of cache lines fetched
system.cpu1.fetch.Cycles                    282375687                       # Number of cycles fetch has run and was not squashing or blocked
system.cpu1.fetch.IcacheSquashes               522342                       # Number of outstanding Icache misses that were squashed
system.cpu1.fetch.IcacheWaitRetryStallCycles           52                       # Number of stall cycles due to full MSHR
system.cpu1.fetch.Insts                     115528347                       # Number of instructions fetch has processed
system.cpu1.fetch.MiscStallCycles                   6                       # Number of cycles fetch has spent waiting on interrupts, or bad addresses, or out of MSHRs
system.cpu1.fetch.SquashCycles                5679810                       # Number of cycles fetch has spent squashing
system.cpu1.fetch.branchRate                 0.083472                       # Number of branch fetches per cycle
system.cpu1.fetch.icacheStallCycles          22055496                       # Number of cycles fetch is stalled on an Icache miss
system.cpu1.fetch.predictedBranches          15585312                       # Number of branches that fetch has predicted taken
system.cpu1.fetch.rate                       0.373133                       # Number of inst fetches per cycle
system.cpu1.fetch.rateDist::samples         307271146                       # Number of instructions fetched each cycle (Total)
system.cpu1.fetch.rateDist::mean             0.385108                       # Number of instructions fetched each cycle (Total)
system.cpu1.fetch.rateDist::stdev            0.844557                       # Number of instructions fetched each cycle (Total)
system.cpu1.fetch.rateDist::underflows              0      0.00%      0.00% # Number of instructions fetched each cycle (Total)
system.cpu1.fetch.rateDist::0               234188865     76.22%     76.22% # Number of instructions fetched each cycle (Total)
system.cpu1.fetch.rateDist::1                45675682     14.86%     91.08% # Number of instructions fetched each cycle (Total)
system.cpu1.fetch.rateDist::2                15868252      5.16%     96.24% # Number of instructions fetched each cycle (Total)
system.cpu1.fetch.rateDist::3                 8028948      2.61%     98.86% # Number of instructions fetched each cycle (Total)
system.cpu1.fetch.rateDist::4                 1718587      0.56%     99.42% # Number of instructions fetched each cycle (Total)
system.cpu1.fetch.rateDist::5                  787543      0.26%     99.67% # Number of instructions fetched each cycle (Total)
system.cpu1.fetch.rateDist::6                 1002281      0.33%    100.00% # Number of instructions fetched each cycle (Total)
system.cpu1.fetch.rateDist::7                       7      0.00%    100.00% # Number of instructions fetched each cycle (Total)
system.cpu1.fetch.rateDist::8                     981      0.00%    100.00% # Number of instructions fetched each cycle (Total)
system.cpu1.fetch.rateDist::overflows               0      0.00%    100.00% # Number of instructions fetched each cycle (Total)
system.cpu1.fetch.rateDist::min_value               0                       # Number of instructions fetched each cycle (Total)
system.cpu1.fetch.rateDist::max_value               8                       # Number of instructions fetched each cycle (Total)
system.cpu1.fetch.rateDist::total           307271146                       # Number of instructions fetched each cycle (Total)
system.cpu1.fp_regfile_reads                       12                       # number of floating regfile reads
system.cpu1.idleCycles                        2345746                       # Total number of cycles that the CPU has spent unscheduled due to idling
system.cpu1.iew.branchMispredicts             1910979                       # Number of branch mispredicts detected at execute
system.cpu1.iew.exec_branches                19372394                       # Number of branches executed
system.cpu1.iew.exec_nop                            0                       # number of nop insts executed
system.cpu1.iew.exec_rate                    0.256004                       # Inst execution rate
system.cpu1.iew.exec_refs                    26029646                       # number of memory reference insts executed
system.cpu1.iew.exec_stores                   6639259                       # Number of stores executed
system.cpu1.iew.exec_swp                            0                       # number of swp insts executed
system.cpu1.iew.iewBlockCycles              190731217                       # Number of cycles IEW is blocking
system.cpu1.iew.iewDispLoadInsts             24857288                       # Number of dispatched load instructions
system.cpu1.iew.iewDispNonSpecInsts           2077979                       # Number of dispatched non-speculative instructions
system.cpu1.iew.iewDispSquashedInsts          1381843                       # Number of squashed instructions skipped by dispatch
system.cpu1.iew.iewDispStoreInsts             9057891                       # Number of dispatched store instructions
system.cpu1.iew.iewDispatchedInsts           96760800                       # Number of instructions dispatched to IQ
system.cpu1.iew.iewExecLoadInsts             19390387                       # Number of load instructions executed
system.cpu1.iew.iewExecSquashedInsts          1318915                       # Number of squashed instructions skipped in execute
system.cpu1.iew.iewExecutedInsts             79263302                       # Number of executed instructions
system.cpu1.iew.iewIQFullEvents               1085832                       # Number of times the IQ has become full, causing a stall
system.cpu1.iew.iewIdleCycles                       0                       # Number of cycles IEW is idle
system.cpu1.iew.iewLSQFullEvents              3939909                       # Number of times the LSQ has become full, causing a stall
system.cpu1.iew.iewSquashCycles               1846564                       # Number of cycles IEW is squashing
system.cpu1.iew.iewUnblockCycles              6288539                       # Number of cycles IEW is unblocking
system.cpu1.iew.lsq.thread0.blockedLoads            0                       # Number of blocked loads due to partial load-store forwarding
system.cpu1.iew.lsq.thread0.cacheBlocked        99465                       # Number of times an access to memory failed due to the cache being blocked
system.cpu1.iew.lsq.thread0.forwLoads          710475                       # Number of loads that had data forwarded from stores
system.cpu1.iew.lsq.thread0.ignoredResponses        31248                       # Number of memory responses ignored because the instruction is squashed
system.cpu1.iew.lsq.thread0.invAddrLoads            0                       # Number of loads ignored due to an invalid address
system.cpu1.iew.lsq.thread0.invAddrSwpfs            0                       # Number of software prefetches ignored due to an invalid address
system.cpu1.iew.lsq.thread0.memOrderViolation         2044                       # Number of memory ordering violations
system.cpu1.iew.lsq.thread0.rescheduledLoads        11060                       # Number of loads that were rescheduled
system.cpu1.iew.lsq.thread0.squashedLoads      8105118                       # Number of loads squashed
system.cpu1.iew.lsq.thread0.squashedStores      2782516                       # Number of stores squashed
system.cpu1.iew.memOrderViolationEvents          2044                       # Number of memory order violations
system.cpu1.iew.predictedNotTakenIncorrect       403994                       # Number of branches that were predicted not taken incorrectly
system.cpu1.iew.predictedTakenIncorrect       1506985                       # Number of branches that were predicted taken incorrectly
system.cpu1.iew.wb_consumers                 45639412                       # num instructions consuming a value
system.cpu1.iew.wb_count                     78058698                       # cumulative count of insts written-back
system.cpu1.iew.wb_fanout                    0.806194                       # average fanout of values written-back
system.cpu1.iew.wb_producers                 36794215                       # num instructions producing a value
system.cpu1.iew.wb_rate                      0.252114                       # insts written-back per cycle
system.cpu1.iew.wb_sent                      78110048                       # cumulative count of insts sent to commit
system.cpu1.int_regfile_reads               101147759                       # number of integer regfile reads
system.cpu1.int_regfile_writes               51669191                       # number of integer regfile writes
system.cpu1.ipc                              0.218594                       # IPC: Instructions Per Cycle
system.cpu1.ipc_total                        0.218594                       # IPC: Total IPC of All Threads
system.cpu1.iq.FU_type_0::No_OpClass          2100768      2.61%      2.61% # Type of FU issued
system.cpu1.iq.FU_type_0::IntAlu             52044054     64.59%     67.19% # Type of FU issued
system.cpu1.iq.FU_type_0::IntMult                  53      0.00%     67.19% # Type of FU issued
system.cpu1.iq.FU_type_0::IntDiv                   90      0.00%     67.19% # Type of FU issued
system.cpu1.iq.FU_type_0::FloatAdd                  0      0.00%     67.19% # Type of FU issued
system.cpu1.iq.FU_type_0::FloatCmp                  0      0.00%     67.19% # Type of FU issued
system.cpu1.iq.FU_type_0::FloatCvt                  0      0.00%     67.19% # Type of FU issued
system.cpu1.iq.FU_type_0::FloatMult                 0      0.00%     67.19% # Type of FU issued
system.cpu1.iq.FU_type_0::FloatMultAcc              0      0.00%     67.19% # Type of FU issued
system.cpu1.iq.FU_type_0::FloatDiv                  0      0.00%     67.19% # Type of FU issued
system.cpu1.iq.FU_type_0::FloatMisc                 0      0.00%     67.19% # Type of FU issued
system.cpu1.iq.FU_type_0::FloatSqrt                 0      0.00%     67.19% # Type of FU issued
system.cpu1.iq.FU_type_0::SimdAdd                   0      0.00%     67.19% # Type of FU issued
system.cpu1.iq.FU_type_0::SimdAddAcc                0      0.00%     67.19% # Type of FU issued
system.cpu1.iq.FU_type_0::SimdAlu                   0      0.00%     67.19% # Type of FU issued
system.cpu1.iq.FU_type_0::SimdCmp                   0      0.00%     67.19% # Type of FU issued
system.cpu1.iq.FU_type_0::SimdCvt                   0      0.00%     67.19% # Type of FU issued
system.cpu1.iq.FU_type_0::SimdMisc                  0      0.00%     67.19% # Type of FU issued
system.cpu1.iq.FU_type_0::SimdMult                  0      0.00%     67.19% # Type of FU issued
system.cpu1.iq.FU_type_0::SimdMultAcc               0      0.00%     67.19% # Type of FU issued
system.cpu1.iq.FU_type_0::SimdShift                 0      0.00%     67.19% # Type of FU issued
system.cpu1.iq.FU_type_0::SimdShiftAcc              0      0.00%     67.19% # Type of FU issued
system.cpu1.iq.FU_type_0::SimdDiv                   0      0.00%     67.19% # Type of FU issued
system.cpu1.iq.FU_type_0::SimdSqrt                  0      0.00%     67.19% # Type of FU issued
system.cpu1.iq.FU_type_0::SimdFloatAdd              0      0.00%     67.19% # Type of FU issued
system.cpu1.iq.FU_type_0::SimdFloatAlu              0      0.00%     67.19% # Type of FU issued
system.cpu1.iq.FU_type_0::SimdFloatCmp              0      0.00%     67.19% # Type of FU issued
system.cpu1.iq.FU_type_0::SimdFloatCvt              0      0.00%     67.19% # Type of FU issued
system.cpu1.iq.FU_type_0::SimdFloatDiv              0      0.00%     67.19% # Type of FU issued
system.cpu1.iq.FU_type_0::SimdFloatMisc             0      0.00%     67.19% # Type of FU issued
system.cpu1.iq.FU_type_0::SimdFloatMult             0      0.00%     67.19% # Type of FU issued
system.cpu1.iq.FU_type_0::SimdFloatMultAcc            0      0.00%     67.19% # Type of FU issued
system.cpu1.iq.FU_type_0::SimdFloatSqrt             0      0.00%     67.19% # Type of FU issued
system.cpu1.iq.FU_type_0::SimdReduceAdd             0      0.00%     67.19% # Type of FU issued
system.cpu1.iq.FU_type_0::SimdReduceAlu             0      0.00%     67.19% # Type of FU issued
system.cpu1.iq.FU_type_0::SimdReduceCmp             0      0.00%     67.19% # Type of FU issued
system.cpu1.iq.FU_type_0::SimdFloatReduceAdd            0      0.00%     67.19% # Type of FU issued
system.cpu1.iq.FU_type_0::SimdFloatReduceCmp            0      0.00%     67.19% # Type of FU issued
system.cpu1.iq.FU_type_0::SimdAes                   0      0.00%     67.19% # Type of FU issued
system.cpu1.iq.FU_type_0::SimdAesMix                0      0.00%     67.19% # Type of FU issued
system.cpu1.iq.FU_type_0::SimdSha1Hash              0      0.00%     67.19% # Type of FU issued
system.cpu1.iq.FU_type_0::SimdSha1Hash2             0      0.00%     67.19% # Type of FU issued
system.cpu1.iq.FU_type_0::SimdSha256Hash            0      0.00%     67.19% # Type of FU issued
system.cpu1.iq.FU_type_0::SimdSha256Hash2            0      0.00%     67.19% # Type of FU issued
system.cpu1.iq.FU_type_0::SimdShaSigma2             0      0.00%     67.19% # Type of FU issued
system.cpu1.iq.FU_type_0::SimdShaSigma3             0      0.00%     67.19% # Type of FU issued
system.cpu1.iq.FU_type_0::SimdPredAlu               0      0.00%     67.19% # Type of FU issued
system.cpu1.iq.FU_type_0::MemRead            20777324     25.78%     92.98% # Type of FU issued
system.cpu1.iq.FU_type_0::MemWrite            5659916      7.02%    100.00% # Type of FU issued
system.cpu1.iq.FU_type_0::FloatMemRead              0      0.00%    100.00% # Type of FU issued
system.cpu1.iq.FU_type_0::FloatMemWrite            12      0.00%    100.00% # Type of FU issued
system.cpu1.iq.FU_type_0::IprAccess                 0      0.00%    100.00% # Type of FU issued
system.cpu1.iq.FU_type_0::InstPrefetch              0      0.00%    100.00% # Type of FU issued
system.cpu1.iq.FU_type_0::total              80582217                       # Type of FU issued
system.cpu1.iq.fp_alu_accesses                     16                       # Number of floating point alu accesses
system.cpu1.iq.fp_inst_queue_reads                 28                       # Number of floating instruction queue reads
system.cpu1.iq.fp_inst_queue_wakeup_accesses           12                       # Number of floating instruction queue wakeup accesses
system.cpu1.iq.fp_inst_queue_writes                12                       # Number of floating instruction queue writes
system.cpu1.iq.fu_busy_cnt                    1580913                       # FU busy when requested
system.cpu1.iq.fu_busy_rate                  0.019619                       # FU busy rate (busy events/executed inst)
system.cpu1.iq.fu_full::No_OpClass                  0      0.00%      0.00% # attempts to use FU when none available
system.cpu1.iq.fu_full::IntAlu                 332483     21.03%     21.03% # attempts to use FU when none available
system.cpu1.iq.fu_full::IntMult                     0      0.00%     21.03% # attempts to use FU when none available
system.cpu1.iq.fu_full::IntDiv                      0      0.00%     21.03% # attempts to use FU when none available
system.cpu1.iq.fu_full::FloatAdd                    0      0.00%     21.03% # attempts to use FU when none available
system.cpu1.iq.fu_full::FloatCmp                    0      0.00%     21.03% # attempts to use FU when none available
system.cpu1.iq.fu_full::FloatCvt                    0      0.00%     21.03% # attempts to use FU when none available
system.cpu1.iq.fu_full::FloatMult                   0      0.00%     21.03% # attempts to use FU when none available
system.cpu1.iq.fu_full::FloatMultAcc                0      0.00%     21.03% # attempts to use FU when none available
system.cpu1.iq.fu_full::FloatDiv                    0      0.00%     21.03% # attempts to use FU when none available
system.cpu1.iq.fu_full::FloatMisc                   0      0.00%     21.03% # attempts to use FU when none available
system.cpu1.iq.fu_full::FloatSqrt                   0      0.00%     21.03% # attempts to use FU when none available
system.cpu1.iq.fu_full::SimdAdd                     0      0.00%     21.03% # attempts to use FU when none available
system.cpu1.iq.fu_full::SimdAddAcc                  0      0.00%     21.03% # attempts to use FU when none available
system.cpu1.iq.fu_full::SimdAlu                     0      0.00%     21.03% # attempts to use FU when none available
system.cpu1.iq.fu_full::SimdCmp                     0      0.00%     21.03% # attempts to use FU when none available
system.cpu1.iq.fu_full::SimdCvt                     0      0.00%     21.03% # attempts to use FU when none available
system.cpu1.iq.fu_full::SimdMisc                    0      0.00%     21.03% # attempts to use FU when none available
system.cpu1.iq.fu_full::SimdMult                    0      0.00%     21.03% # attempts to use FU when none available
system.cpu1.iq.fu_full::SimdMultAcc                 0      0.00%     21.03% # attempts to use FU when none available
system.cpu1.iq.fu_full::SimdShift                   0      0.00%     21.03% # attempts to use FU when none available
system.cpu1.iq.fu_full::SimdShiftAcc                0      0.00%     21.03% # attempts to use FU when none available
system.cpu1.iq.fu_full::SimdDiv                     0      0.00%     21.03% # attempts to use FU when none available
system.cpu1.iq.fu_full::SimdSqrt                    0      0.00%     21.03% # attempts to use FU when none available
system.cpu1.iq.fu_full::SimdFloatAdd                0      0.00%     21.03% # attempts to use FU when none available
system.cpu1.iq.fu_full::SimdFloatAlu                0      0.00%     21.03% # attempts to use FU when none available
system.cpu1.iq.fu_full::SimdFloatCmp                0      0.00%     21.03% # attempts to use FU when none available
system.cpu1.iq.fu_full::SimdFloatCvt                0      0.00%     21.03% # attempts to use FU when none available
system.cpu1.iq.fu_full::SimdFloatDiv                0      0.00%     21.03% # attempts to use FU when none available
system.cpu1.iq.fu_full::SimdFloatMisc               0      0.00%     21.03% # attempts to use FU when none available
system.cpu1.iq.fu_full::SimdFloatMult               0      0.00%     21.03% # attempts to use FU when none available
system.cpu1.iq.fu_full::SimdFloatMultAcc            0      0.00%     21.03% # attempts to use FU when none available
system.cpu1.iq.fu_full::SimdFloatSqrt               0      0.00%     21.03% # attempts to use FU when none available
system.cpu1.iq.fu_full::SimdReduceAdd               0      0.00%     21.03% # attempts to use FU when none available
system.cpu1.iq.fu_full::SimdReduceAlu               0      0.00%     21.03% # attempts to use FU when none available
system.cpu1.iq.fu_full::SimdReduceCmp               0      0.00%     21.03% # attempts to use FU when none available
system.cpu1.iq.fu_full::SimdFloatReduceAdd            0      0.00%     21.03% # attempts to use FU when none available
system.cpu1.iq.fu_full::SimdFloatReduceCmp            0      0.00%     21.03% # attempts to use FU when none available
system.cpu1.iq.fu_full::SimdAes                     0      0.00%     21.03% # attempts to use FU when none available
system.cpu1.iq.fu_full::SimdAesMix                  0      0.00%     21.03% # attempts to use FU when none available
system.cpu1.iq.fu_full::SimdSha1Hash                0      0.00%     21.03% # attempts to use FU when none available
system.cpu1.iq.fu_full::SimdSha1Hash2               0      0.00%     21.03% # attempts to use FU when none available
system.cpu1.iq.fu_full::SimdSha256Hash              0      0.00%     21.03% # attempts to use FU when none available
system.cpu1.iq.fu_full::SimdSha256Hash2             0      0.00%     21.03% # attempts to use FU when none available
system.cpu1.iq.fu_full::SimdShaSigma2               0      0.00%     21.03% # attempts to use FU when none available
system.cpu1.iq.fu_full::SimdShaSigma3               0      0.00%     21.03% # attempts to use FU when none available
system.cpu1.iq.fu_full::SimdPredAlu                 0      0.00%     21.03% # attempts to use FU when none available
system.cpu1.iq.fu_full::MemRead                984721     62.29%     83.32% # attempts to use FU when none available
[...]
system.cpu1.dcache.WriteReq_mshr_miss_rate::.cpu1.data     0.047033                       # mshr miss rate for WriteReq accesses
system.cpu1.dcache.WriteReq_mshr_miss_rate::total     0.047033                       # mshr miss rate for WriteReq accesses
system.cpu1.dcache.WriteReq_avg_mshr_miss_latency::.cpu1.data 108397.120647                       # average WriteReq mshr miss latency
system.cpu1.dcache.WriteReq_avg_mshr_miss_latency::total 108397.120647                       # average WriteReq mshr miss latency
system.cpu1.dcache.LoadLockedReq_hits::.cpu1.data        17236                       # number of LoadLockedReq hits
system.cpu1.dcache.LoadLockedReq_hits::total        17236                       # number of LoadLockedReq hits
system.cpu1.dcache.LoadLockedReq_misses::.cpu1.data          803                       # number of LoadLockedReq misses
system.cpu1.dcache.LoadLockedReq_misses::total          803                       # number of LoadLockedReq misses
system.cpu1.dcache.LoadLockedReq_miss_latency::.cpu1.data     24719500                       # number of LoadLockedReq miss cycles
system.cpu1.dcache.LoadLockedReq_miss_latency::total     24719500                       # number of LoadLockedReq miss cycles
system.cpu1.dcache.LoadLockedReq_accesses::.cpu1.data        18039                       # number of LoadLockedReq accesses(hits+misses)
system.cpu1.dcache.LoadLockedReq_accesses::total        18039                       # number of LoadLockedReq accesses(hits+misses)
system.cpu1.dcache.LoadLockedReq_miss_rate::.cpu1.data     0.044515                       # miss rate for LoadLockedReq accesses
system.cpu1.dcache.LoadLockedReq_miss_rate::total     0.044515                       # miss rate for LoadLockedReq accesses
system.cpu1.dcache.LoadLockedReq_avg_miss_latency::.cpu1.data 30783.935243                       # average LoadLockedReq miss latency
system.cpu1.dcache.LoadLockedReq_avg_miss_latency::total 30783.935243                       # average LoadLockedReq miss latency
system.cpu1.dcache.LoadLockedReq_mshr_hits::.cpu1.data          183                       # number of LoadLockedReq MSHR hits
system.cpu1.dcache.LoadLockedReq_mshr_hits::total          183                       # number of LoadLockedReq MSHR hits
system.cpu1.dcache.LoadLockedReq_mshr_misses::.cpu1.data          620                       # number of LoadLockedReq MSHR misses
system.cpu1.dcache.LoadLockedReq_mshr_misses::total          620                       # number of LoadLockedReq MSHR misses
system.cpu1.dcache.LoadLockedReq_mshr_miss_latency::.cpu1.data     17575500                       # number of LoadLockedReq MSHR miss cycles
system.cpu1.dcache.LoadLockedReq_mshr_miss_latency::total     17575500                       # number of LoadLockedReq MSHR miss cycles
system.cpu1.dcache.LoadLockedReq_mshr_miss_rate::.cpu1.data     0.034370                       # mshr miss rate for LoadLockedReq accesses
system.cpu1.dcache.LoadLockedReq_mshr_miss_rate::total     0.034370                       # mshr miss rate for LoadLockedReq accesses
system.cpu1.dcache.LoadLockedReq_avg_mshr_miss_latency::.cpu1.data 28347.580645                       # average LoadLockedReq mshr miss latency
system.cpu1.dcache.LoadLockedReq_avg_mshr_miss_latency::total 28347.580645                       # average LoadLockedReq mshr miss latency
system.cpu1.dcache.StoreCondReq_hits::.cpu1.data        16418                       # number of StoreCondReq hits
system.cpu1.dcache.StoreCondReq_hits::total        16418                       # number of StoreCondReq hits
system.cpu1.dcache.StoreCondReq_misses::.cpu1.data          749                       # number of StoreCondReq misses
system.cpu1.dcache.StoreCondReq_misses::total          749                       # number of StoreCondReq misses
system.cpu1.dcache.StoreCondReq_miss_latency::.cpu1.data      5498000                       # number of StoreCondReq miss cycles
system.cpu1.dcache.StoreCondReq_miss_latency::total      5498000                       # number of StoreCondReq miss cycles
system.cpu1.dcache.StoreCondReq_accesses::.cpu1.data        17167                       # number of StoreCondReq accesses(hits+misses)
system.cpu1.dcache.StoreCondReq_accesses::total        17167                       # number of StoreCondReq accesses(hits+misses)
system.cpu1.dcache.StoreCondReq_miss_rate::.cpu1.data     0.043630                       # miss rate for StoreCondReq accesses
system.cpu1.dcache.StoreCondReq_miss_rate::total     0.043630                       # miss rate for StoreCondReq accesses
system.cpu1.dcache.StoreCondReq_avg_miss_latency::.cpu1.data  7340.453939                       # average StoreCondReq miss latency
system.cpu1.dcache.StoreCondReq_avg_miss_latency::total  7340.453939                       # average StoreCondReq miss latency
system.cpu1.dcache.StoreCondReq_mshr_misses::.cpu1.data          740                       # number of StoreCondReq MSHR misses
system.cpu1.dcache.StoreCondReq_mshr_misses::total          740                       # number of StoreCondReq MSHR misses
system.cpu1.dcache.StoreCondReq_mshr_miss_latency::.cpu1.data      4839000                       # number of StoreCondReq MSHR miss cycles
system.cpu1.dcache.StoreCondReq_mshr_miss_latency::total      4839000                       # number of StoreCondReq MSHR miss cycles
system.cpu1.dcache.StoreCondReq_mshr_miss_rate::.cpu1.data     0.043106                       # mshr miss rate for StoreCondReq accesses
system.cpu1.dcache.StoreCondReq_mshr_miss_rate::total     0.043106                       # mshr miss rate for StoreCondReq accesses
system.cpu1.dcache.StoreCondReq_avg_mshr_miss_latency::.cpu1.data  6539.189189                       # average StoreCondReq mshr miss latency
system.cpu1.dcache.StoreCondReq_avg_mshr_miss_latency::total  6539.189189                       # average StoreCondReq mshr miss latency
system.cpu1.dcache.StoreCondFailReq_miss_latency::.cpu1.data      1174000                       # number of StoreCondFailReq miss cycles
system.cpu1.dcache.StoreCondFailReq_miss_latency::total      1174000                       # number of StoreCondFailReq miss cycles
system.cpu1.dcache.StoreCondFailReq_avg_miss_latency::.cpu1.data          inf                       # average StoreCondFailReq miss latency
system.cpu1.dcache.StoreCondFailReq_avg_miss_latency::total          inf                       # average StoreCondFailReq miss latency
system.cpu1.dcache.StoreCondFailReq_mshr_miss_latency::.cpu1.data      1093000                       # number of StoreCondFailReq MSHR miss cycles
system.cpu1.dcache.StoreCondFailReq_mshr_miss_latency::total      1093000                       # number of StoreCondFailReq MSHR miss cycles
system.cpu1.dcache.StoreCondFailReq_avg_mshr_miss_latency::.cpu1.data          inf                       # average StoreCondFailReq mshr miss latency
system.cpu1.dcache.StoreCondFailReq_avg_mshr_miss_latency::total          inf                       # average StoreCondFailReq mshr miss latency
system.cpu1.dcache.SwapReq_hits::.cpu1.data          657                       # number of SwapReq hits
system.cpu1.dcache.SwapReq_hits::total            657                       # number of SwapReq hits
system.cpu1.dcache.SwapReq_misses::.cpu1.data         1355                       # number of SwapReq misses
system.cpu1.dcache.SwapReq_misses::total         1355                       # number of SwapReq misses
system.cpu1.dcache.SwapReq_miss_latency::.cpu1.data     14319499                       # number of SwapReq miss cycles
system.cpu1.dcache.SwapReq_miss_latency::total     14319499                       # number of SwapReq miss cycles
system.cpu1.dcache.SwapReq_accesses::.cpu1.data         2012                       # number of SwapReq accesses(hits+misses)
system.cpu1.dcache.SwapReq_accesses::total         2012                       # number of SwapReq accesses(hits+misses)
system.cpu1.dcache.SwapReq_miss_rate::.cpu1.data     0.673459                       # miss rate for SwapReq accesses
system.cpu1.dcache.SwapReq_miss_rate::total     0.673459                       # miss rate for SwapReq accesses
system.cpu1.dcache.SwapReq_avg_miss_latency::.cpu1.data 10567.895941                       # average SwapReq miss latency
system.cpu1.dcache.SwapReq_avg_miss_latency::total 10567.895941                       # average SwapReq miss latency
system.cpu1.dcache.SwapReq_mshr_hits::.cpu1.data            1                       # number of SwapReq MSHR hits
system.cpu1.dcache.SwapReq_mshr_hits::total            1                       # number of SwapReq MSHR hits
system.cpu1.dcache.SwapReq_mshr_misses::.cpu1.data         1354                       # number of SwapReq MSHR misses
system.cpu1.dcache.SwapReq_mshr_misses::total         1354                       # number of SwapReq MSHR misses
system.cpu1.dcache.SwapReq_mshr_miss_latency::.cpu1.data     12945999                       # number of SwapReq MSHR miss cycles
system.cpu1.dcache.SwapReq_mshr_miss_latency::total     12945999                       # number of SwapReq MSHR miss cycles
system.cpu1.dcache.SwapReq_mshr_miss_rate::.cpu1.data     0.672962                       # mshr miss rate for SwapReq accesses
system.cpu1.dcache.SwapReq_mshr_miss_rate::total     0.672962                       # mshr miss rate for SwapReq accesses
system.cpu1.dcache.SwapReq_avg_mshr_miss_latency::.cpu1.data  9561.299114                       # average SwapReq mshr miss latency
system.cpu1.dcache.SwapReq_avg_mshr_miss_latency::total  9561.299114                       # average SwapReq mshr miss latency
system.cpu1.dcache.tags.pwrStateResidencyTicks::UNDEFINED  45588016500                       # Cumulative time (in ticks) in various power states
system.cpu1.dcache.tags.tagsinuse           31.440015                       # Cycle average of tags in use
system.cpu1.dcache.tags.total_refs            7913199                       # Total number of references to valid blocks.
system.cpu1.dcache.tags.sampled_refs           499190                       # Sample count of references to valid blocks.
system.cpu1.dcache.tags.avg_refs            15.852078                       # Average number of references to valid blocks.
system.cpu1.dcache.tags.warmup_cycle                0                       # Cycle when the warmup percentage was hit.
system.cpu1.dcache.tags.occ_blocks::.cpu1.data    31.440015                       # Average occupied blocks per requestor
system.cpu1.dcache.tags.occ_percent::.cpu1.data     0.982500                       # Average percentage of cache occupancy
system.cpu1.dcache.tags.occ_percent::total     0.982500                       # Average percentage of cache occupancy
system.cpu1.dcache.tags.occ_task_id_blocks::1024           27                       # Occupied blocks per task id
system.cpu1.dcache.tags.age_task_id_blocks_1024::1           27                       # Occupied blocks per task id
system.cpu1.dcache.tags.occ_task_id_percent::1024     0.843750                       # Percentage of cache occupancy per task id
system.cpu1.dcache.tags.tag_accesses         25933017                       # Number of tag accesses
system.cpu1.dcache.tags.data_accesses        25933017                       # Number of data accesses
system.cpu_clk_domain.clock                       500                       # Clock period in ticks
system.tol2bus.pwrStateResidencyTicks::UNDEFINED  45588016500                       # Cumulative time (in ticks) in various power states
system.tol2bus.trans_dist::ReadResp           1687495                       # Transaction distribution
system.tol2bus.trans_dist::ReadRespWithInvalidate           17                       # Transaction distribution
system.tol2bus.trans_dist::WritebackDirty      1868837                       # Transaction distribution
system.tol2bus.trans_dist::WritebackClean      1216147                       # Transaction distribution
system.tol2bus.trans_dist::CleanEvict         3161417                       # Transaction distribution
system.tol2bus.trans_dist::UpgradeReq            4557                       # Transaction distribution
system.tol2bus.trans_dist::SCUpgradeReq          3553                       # Transaction distribution
system.tol2bus.trans_dist::UpgradeResp           8110                       # Transaction distribution
system.tol2bus.trans_dist::SCUpgradeFailReq          215                       # Transaction distribution
system.tol2bus.trans_dist::UpgradeFailResp          215                       # Transaction distribution
system.tol2bus.trans_dist::ReadExReq           482626                       # Transaction distribution
system.tol2bus.trans_dist::ReadExResp          482627                       # Transaction distribution
system.tol2bus.trans_dist::ReadCleanReq        118520                       # Transaction distribution
system.tol2bus.trans_dist::ReadSharedReq      1568992                       # Transaction distribution
system.tol2bus.trans_dist::InvalidateReq          144                       # Transaction distribution
system.tol2bus.trans_dist::InvalidateResp          144                       # Transaction distribution
system.tol2bus.pkt_count_system.cpu0.icache.mem_side::system.l2.cpu_side       215151                       # Packet count per connected master and slave (bytes)
system.tol2bus.pkt_count_system.cpu0.dcache.mem_side::system.l2.cpu_side      1650020                       # Packet count per connected master and slave (bytes)
system.tol2bus.pkt_count_system.cpu1.icache.mem_side::system.l2.cpu_side        47199                       # Packet count per connected master and slave (bytes)
system.tol2bus.pkt_count_system.cpu1.dcache.mem_side::system.l2.cpu_side      1491712                       # Packet count per connected master and slave (bytes)
system.tol2bus.pkt_count_system.cpu2.icache.mem_side::system.l2.cpu_side        46581                       # Packet count per connected master and slave (bytes)
system.tol2bus.pkt_count_system.cpu2.dcache.mem_side::system.l2.cpu_side      1498867                       # Packet count per connected master and slave (bytes)
system.tol2bus.pkt_count_system.cpu3.icache.mem_side::system.l2.cpu_side        46629                       # Packet count per connected master and slave (bytes)
system.tol2bus.pkt_count_system.cpu3.dcache.mem_side::system.l2.cpu_side      1495845                       # Packet count per connected master and slave (bytes)
system.tol2bus.pkt_count::total               6492004                       # Packet count per connected master and slave (bytes)
system.tol2bus.pkt_size_system.cpu0.icache.mem_side::system.l2.cpu_side      9179776                       # Cumulative packet size per connected master and slave (bytes)
system.tol2bus.pkt_size_system.cpu0.dcache.mem_side::system.l2.cpu_side     70128960                       # Cumulative packet size per connected master and slave (bytes)
system.tol2bus.pkt_size_system.cpu1.icache.mem_side::system.l2.cpu_side      2013824                       # Cumulative packet size per connected master and slave (bytes)
system.tol2bus.pkt_size_system.cpu1.dcache.mem_side::system.l2.cpu_side     63383936                       # Cumulative packet size per connected master and slave (bytes)
system.tol2bus.pkt_size_system.cpu2.icache.mem_side::system.l2.cpu_side      1987456                       # Cumulative packet size per connected master and slave (bytes)
system.tol2bus.pkt_size_system.cpu2.dcache.mem_side::system.l2.cpu_side     63680640                       # Cumulative packet size per connected master and slave (bytes)
system.tol2bus.pkt_size_system.cpu3.icache.mem_side::system.l2.cpu_side      1989504                       # Cumulative packet size per connected master and slave (bytes)
system.tol2bus.pkt_size_system.cpu3.dcache.mem_side::system.l2.cpu_side     63549568                       # Cumulative packet size per connected master and slave (bytes)
system.tol2bus.pkt_size::total              275913664                       # Cumulative packet size per connected master and slave (bytes)
system.tol2bus.snoops                         4111612                       # Total snoops (count)
system.tol2bus.snoopTraffic                  60427968                       # Total snoop traffic (bytes)
system.tol2bus.snoop_fanout::samples          6269955                       # Request fanout histogram
system.tol2bus.snoop_fanout::mean            0.363862                       # Request fanout histogram
system.tol2bus.snoop_fanout::stdev           0.554578                       # Request fanout histogram
system.tol2bus.snoop_fanout::underflows             0      0.00%      0.00% # Request fanout histogram
system.tol2bus.snoop_fanout::0                4142337     66.07%     66.07% # Request fanout histogram
system.tol2bus.snoop_fanout::1                2042674     32.58%     98.65% # Request fanout histogram
system.tol2bus.snoop_fanout::2                  32038      0.51%     99.16% # Request fanout histogram
system.tol2bus.snoop_fanout::3                  36977      0.59%     99.75% # Request fanout histogram
system.tol2bus.snoop_fanout::4                  15929      0.25%    100.00% # Request fanout histogram
system.tol2bus.snoop_fanout::5                      0      0.00%    100.00% # Request fanout histogram
system.tol2bus.snoop_fanout::6                      0      0.00%    100.00% # Request fanout histogram
system.tol2bus.snoop_fanout::7                      0      0.00%    100.00% # Request fanout histogram
system.tol2bus.snoop_fanout::8                      0      0.00%    100.00% # Request fanout histogram
system.tol2bus.snoop_fanout::overflows              0      0.00%    100.00% # Request fanout histogram
system.tol2bus.snoop_fanout::min_value              0                       # Request fanout histogram
system.tol2bus.snoop_fanout::max_value              4                       # Request fanout histogram
system.tol2bus.snoop_fanout::total            6269955                       # Request fanout histogram
system.tol2bus.reqLayer0.occupancy         4321937890                       # Layer occupancy (ticks)
system.tol2bus.reqLayer0.utilization              9.5                       # Layer utilization (%)
system.tol2bus.respLayer5.occupancy         753620048                       # Layer occupancy (ticks)
system.tol2bus.respLayer5.utilization             1.7                       # Layer utilization (%)
system.tol2bus.respLayer4.occupancy          25414332                       # Layer occupancy (ticks)
system.tol2bus.respLayer4.utilization             0.1                       # Layer utilization (%)
system.tol2bus.respLayer7.occupancy         752192150                       # Layer occupancy (ticks)
system.tol2bus.respLayer7.utilization             1.6                       # Layer utilization (%)
system.tol2bus.respLayer6.occupancy          25485187                       # Layer occupancy (ticks)
system.tol2bus.respLayer6.utilization             0.1                       # Layer utilization (%)
system.tol2bus.respLayer1.occupancy         827725011                       # Layer occupancy (ticks)
system.tol2bus.respLayer1.utilization             1.8                       # Layer utilization (%)
system.tol2bus.respLayer0.occupancy         108148003                       # Layer occupancy (ticks)
system.tol2bus.respLayer0.utilization             0.2                       # Layer utilization (%)
system.tol2bus.respLayer3.occupancy         750163563                       # Layer occupancy (ticks)
system.tol2bus.respLayer3.utilization             1.6                       # Layer utilization (%)
system.tol2bus.respLayer2.occupancy          25816750                       # Layer occupancy (ticks)
system.tol2bus.respLayer2.utilization             0.1                       # Layer utilization (%)

---------- End Simulation Statistics   ----------
