
---------- Begin Simulation Statistics ----------
final_tick                               1250482157500                       # Number of ticks from beginning of simulation (restored from checkpoints and never reset)
host_inst_rate                                  60359                       # Simulator instruction rate (inst/s)
host_mem_usage                                 702068                       # Number of bytes of host memory used
host_op_rate                                    60536                       # Simulator op (including micro ops) rate (op/s)
host_seconds                                 23801.56                       # Real time elapsed on the host
host_tick_rate                               52537817                       # Simulator tick rate (ticks/s)
sim_freq                                 1000000000000                       # Frequency of simulated ticks
sim_insts                                  1436641266                       # Number of instructions simulated
sim_ops                                    1440845027                       # Number of ops (including micro ops) simulated
sim_seconds                                  1.250482                       # Number of seconds simulated
sim_ticks                                1250482157500                       # Number of ticks simulated
system.cpu0.branchPred.BTBCorrect                   0                       # Number of correct BTB predictions (this stat may not work properly.
system.cpu0.branchPred.BTBHitPct            87.368080                       # BTB Hit Percentage
system.cpu0.branchPred.BTBHits              193057897                       # Number of BTB hits
system.cpu0.branchPred.BTBLookups           220970744                       # Number of BTB lookups
system.cpu0.branchPred.RASInCorrect                 0                       # Number of incorrect RAS predictions.
system.cpu0.branchPred.condIncorrect         30178107                       # Number of conditional branches incorrect
system.cpu0.branchPred.condPredicted        281596012                       # Number of conditional branches predicted
system.cpu0.branchPred.indirectHits          25800861                       # Number of indirect target hits.
system.cpu0.branchPred.indirectLookups       26805891                       # Number of indirect predictor lookups.
system.cpu0.branchPred.indirectMisses         1005030                       # Number of indirect misses.
system.cpu0.branchPred.lookups              366535740                       # Number of BP lookups
system.cpu0.branchPred.usedRAS                      0                       # Number of times the RAS was used to get a target.
system.cpu0.branchPredindirectMispredicted      2188054                       # Number of mispredicted indirect branches.
system.cpu0.commit.amos                       2100293                       # Number of atomic instructions committed
system.cpu0.commit.branchMispredicts         15036438                       # The number of times a branch was mispredicted
system.cpu0.commit.branches                 329547881                       # Number of branches committed
system.cpu0.commit.bw_lim_events             40454639                       # number cycles where commit BW limit reached
system.cpu0.commit.commitNonSpecStalls        6309771                       # The number of times commit has been forced to stall to communicate backwards
system.cpu0.commit.commitSquashedInsts      130655848                       # The number of squashed insts skipped by commit
system.cpu0.commit.committedInsts          1316566038                       # Number of instructions committed
system.cpu0.commit.committedOps            1318669615                       # Number of ops (including micro ops) committed
system.cpu0.commit.committed_per_cycle::samples   2274926214                       # Number of insts commited each cycle
system.cpu0.commit.committed_per_cycle::mean     0.579654                       # Number of insts commited each cycle
system.cpu0.commit.committed_per_cycle::stdev     1.367947                       # Number of insts commited each cycle
system.cpu0.commit.committed_per_cycle::underflows            0      0.00%      0.00% # Number of insts commited each cycle
system.cpu0.commit.committed_per_cycle::0   1657536221     72.86%     72.86% # Number of insts commited each cycle
system.cpu0.commit.committed_per_cycle::1    358496251     15.76%     88.62% # Number of insts commited each cycle
system.cpu0.commit.committed_per_cycle::2     86940499      3.82%     92.44% # Number of insts commited each cycle
system.cpu0.commit.committed_per_cycle::3     86004316      3.78%     96.22% # Number of insts commited each cycle
system.cpu0.commit.committed_per_cycle::4     31369390      1.38%     97.60% # Number of insts commited each cycle
system.cpu0.commit.committed_per_cycle::5      7096133      0.31%     97.91% # Number of insts commited each cycle
system.cpu0.commit.committed_per_cycle::6      5517274      0.24%     98.16% # Number of insts commited each cycle
system.cpu0.commit.committed_per_cycle::7      1511491      0.07%     98.22% # Number of insts commited each cycle
system.cpu0.commit.committed_per_cycle::8     40454639      1.78%    100.00% # Number of insts commited each cycle
system.cpu0.commit.committed_per_cycle::overflows            0      0.00%    100.00% # Number of insts commited each cycle
system.cpu0.commit.committed_per_cycle::min_value            0                       # Number of insts commited each cycle
system.cpu0.commit.committed_per_cycle::max_value            8                       # Number of insts commited each cycle
system.cpu0.commit.committed_per_cycle::total   2274926214                       # Number of insts commited each cycle
system.cpu0.commit.fp_insts                        50                       # Number of committed floating point instructions.
system.cpu0.commit.function_calls            25143548                       # Number of function calls committed.
system.cpu0.commit.int_insts               1273937673                       # Number of committed integer instructions.
system.cpu0.commit.loads                    405171870                       # Number of loads committed
system.cpu0.commit.membars                    4203737                       # Number of memory barriers committed
system.cpu0.commit.op_class_0::No_OpClass      4203743      0.32%      0.32% # Class of committed instruction
system.cpu0.commit.op_class_0::IntAlu       742074778     56.27%     56.59% # Class of committed instruction
system.cpu0.commit.op_class_0::IntMult       11833032      0.90%     57.49% # Class of committed instruction
system.cpu0.commit.op_class_0::IntDiv         2099835      0.16%     57.65% # Class of committed instruction
system.cpu0.commit.op_class_0::FloatAdd             0      0.00%     57.65% # Class of committed instruction
system.cpu0.commit.op_class_0::FloatCmp             4      0.00%     57.65% # Class of committed instruction
system.cpu0.commit.op_class_0::FloatCvt            12      0.00%     57.65% # Class of committed instruction
system.cpu0.commit.op_class_0::FloatMult            0      0.00%     57.65% # Class of committed instruction
system.cpu0.commit.op_class_0::FloatMultAcc            0      0.00%     57.65% # Class of committed instruction
system.cpu0.commit.op_class_0::FloatDiv             2      0.00%     57.65% # Class of committed instruction
system.cpu0.commit.op_class_0::FloatMisc            4      0.00%     57.65% # Class of committed instruction
system.cpu0.commit.op_class_0::FloatSqrt            0      0.00%     57.65% # Class of committed instruction
system.cpu0.commit.op_class_0::SimdAdd              0      0.00%     57.65% # Class of committed instruction
system.cpu0.commit.op_class_0::SimdAddAcc            0      0.00%     57.65% # Class of committed instruction
system.cpu0.commit.op_class_0::SimdAlu              0      0.00%     57.65% # Class of committed instruction
system.cpu0.commit.op_class_0::SimdCmp              0      0.00%     57.65% # Class of committed instruction
system.cpu0.commit.op_class_0::SimdCvt              0      0.00%     57.65% # Class of committed instruction
system.cpu0.commit.op_class_0::SimdMisc             0      0.00%     57.65% # Class of committed instruction
system.cpu0.commit.op_class_0::SimdMult             0      0.00%     57.65% # Class of committed instruction
system.cpu0.commit.op_class_0::SimdMultAcc            0      0.00%     57.65% # Class of committed instruction
system.cpu0.commit.op_class_0::SimdShift            0      0.00%     57.65% # Class of committed instruction
system.cpu0.commit.op_class_0::SimdShiftAcc            0      0.00%     57.65% # Class of committed instruction
system.cpu0.commit.op_class_0::SimdDiv              0      0.00%     57.65% # Class of committed instruction
system.cpu0.commit.op_class_0::SimdSqrt             0      0.00%     57.65% # Class of committed instruction
system.cpu0.commit.op_class_0::SimdFloatAdd            0      0.00%     57.65% # Class of committed instruction
system.cpu0.commit.op_class_0::SimdFloatAlu            0      0.00%     57.65% # Class of committed instruction
system.cpu0.commit.op_class_0::SimdFloatCmp            0      0.00%     57.65% # Class of committed instruction
system.cpu0.commit.op_class_0::SimdFloatCvt            0      0.00%     57.65% # Class of committed instruction
system.cpu0.commit.op_class_0::SimdFloatDiv            0      0.00%     57.65% # Class of committed instruction
system.cpu0.commit.op_class_0::SimdFloatMisc            0      0.00%     57.65% # Class of committed instruction
system.cpu0.commit.op_class_0::SimdFloatMult            0      0.00%     57.65% # Class of committed instruction
system.cpu0.commit.op_class_0::SimdFloatMultAcc            0      0.00%     57.65% # Class of committed instruction
system.cpu0.commit.op_class_0::SimdFloatSqrt            0      0.00%     57.65% # Class of committed instruction
system.cpu0.commit.op_class_0::SimdReduceAdd            0      0.00%     57.65% # Class of committed instruction
system.cpu0.commit.op_class_0::SimdReduceAlu            0      0.00%     57.65% # Class of committed instruction
system.cpu0.commit.op_class_0::SimdReduceCmp            0      0.00%     57.65% # Class of committed instruction
system.cpu0.commit.op_class_0::SimdFloatReduceAdd            0      0.00%     57.65% # Class of committed instruction
system.cpu0.commit.op_class_0::SimdFloatReduceCmp            0      0.00%     57.65% # Class of committed instruction
system.cpu0.commit.op_class_0::SimdAes              0      0.00%     57.65% # Class of committed instruction
system.cpu0.commit.op_class_0::SimdAesMix            0      0.00%     57.65% # Class of committed instruction
system.cpu0.commit.op_class_0::SimdSha1Hash            0      0.00%     57.65% # Class of committed instruction
system.cpu0.commit.op_class_0::SimdSha1Hash2            0      0.00%     57.65% # Class of committed instruction
system.cpu0.commit.op_class_0::SimdSha256Hash            0      0.00%     57.65% # Class of committed instruction
system.cpu0.commit.op_class_0::SimdSha256Hash2            0      0.00%     57.65% # Class of committed instruction
system.cpu0.commit.op_class_0::SimdShaSigma2            0      0.00%     57.65% # Class of committed instruction
system.cpu0.commit.op_class_0::SimdShaSigma3            0      0.00%     57.65% # Class of committed instruction
system.cpu0.commit.op_class_0::SimdPredAlu            0      0.00%     57.65% # Class of committed instruction
system.cpu0.commit.op_class_0::MemRead      407272155     30.89%     88.53% # Class of committed instruction
system.cpu0.commit.op_class_0::MemWrite     151186022     11.47%    100.00% # Class of committed instruction
system.cpu0.commit.op_class_0::FloatMemRead            8      0.00%    100.00% # Class of committed instruction
system.cpu0.commit.op_class_0::FloatMemWrite           20      0.00%    100.00% # Class of committed instruction
system.cpu0.commit.op_class_0::IprAccess            0      0.00%    100.00% # Class of committed instruction
system.cpu0.commit.op_class_0::InstPrefetch            0      0.00%    100.00% # Class of committed instruction
system.cpu0.commit.op_class_0::total       1318669615                       # Class of committed instruction
system.cpu0.commit.refs                     558458205                       # Number of memory references committed
system.cpu0.commit.swp_count                        0                       # Number of s/w prefetches committed
system.cpu0.commit.vec_insts                        0                       # Number of committed Vector instructions.
system.cpu0.committedInsts                 1316566038                       # Number of Instructions Simulated
system.cpu0.committedOps                   1318669615                       # Number of Ops (including micro ops) Simulated
system.cpu0.cpi                              1.895992                       # CPI: Cycles Per Instruction
system.cpu0.cpi_total                        1.895992                       # CPI: Total CPI of All Threads
system.cpu0.decode.BlockedCycles            426778774                       # Number of cycles decode is blocked
system.cpu0.decode.BranchMispred             15192010                       # Number of times decode detected a branch misprediction
system.cpu0.decode.BranchResolved           185030087                       # Number of times decode resolved a branch
system.cpu0.decode.DecodedInsts            1475628604                       # Number of instructions handled by decode
system.cpu0.decode.IdleCycles               840483982                       # Number of cycles decode is idle
system.cpu0.decode.RunCycles               1014913817                       # Number of cycles decode is running
system.cpu0.decode.SquashCycles              15046338                       # Number of cycles decode is squashing
system.cpu0.decode.SquashedInsts             23314419                       # Number of squashed instructions handled by decode
system.cpu0.decode.UnblockCycles              7656511                       # Number of cycles decode is unblocking
system.cpu0.dtb.accesses                            0                       # DTB accesses
system.cpu0.dtb.hits                                0                       # DTB hits
system.cpu0.dtb.misses                              0                       # DTB misses
system.cpu0.dtb.read_accesses                       0                       # DTB read accesses
system.cpu0.dtb.read_hits                           0                       # DTB read hits
system.cpu0.dtb.read_misses                         0                       # DTB read misses
system.cpu0.dtb.write_accesses                      0                       # DTB write accesses
system.cpu0.dtb.write_hits                          0                       # DTB write hits
system.cpu0.dtb.write_misses                        0                       # DTB write misses
system.cpu0.fetch.Branches                  366535740                       # Number of branches that fetch encountered
system.cpu0.fetch.CacheLines                264098973                       # Number of cache lines fetched
system.cpu0.fetch.Cycles                   1461494106                       # Number of cycles fetch has run and was not squashing or blocked
system.cpu0.fetch.IcacheSquashes             12796186                       # Number of outstanding Icache misses that were squashed
system.cpu0.fetch.IcacheWaitRetryStallCycles          126                       # Number of stall cycles due to full MSHR
system.cpu0.fetch.Insts                    1522513876                       # Number of instructions fetch has processed
system.cpu0.fetch.MiscStallCycles                 314                       # Number of cycles fetch has spent waiting on interrupts, or bad addresses, or out of MSHRs
system.cpu0.fetch.PendingTrapStallCycles          107                       # Number of stall cycles due to pending traps
system.cpu0.fetch.SquashCycles               60376048                       # Number of cycles fetch has spent squashing
system.cpu0.fetch.branchRate                 0.146838                       # Number of branch fetches per cycle
system.cpu0.fetch.icacheStallCycles         813196745                       # Number of cycles fetch is stalled on an Icache miss
system.cpu0.fetch.predictedBranches         218858758                       # Number of branches that fetch has predicted taken
system.cpu0.fetch.rate                       0.609933                       # Number of inst fetches per cycle
system.cpu0.fetch.rateDist::samples        2304879422                       # Number of instructions fetched each cycle (Total)
system.cpu0.fetch.rateDist::mean             0.661474                       # Number of instructions fetched each cycle (Total)
system.cpu0.fetch.rateDist::stdev            0.908236                       # Number of instructions fetched each cycle (Total)
system.cpu0.fetch.rateDist::underflows              0      0.00%      0.00% # Number of instructions fetched each cycle (Total)
system.cpu0.fetch.rateDist::0              1236094002     53.63%     53.63% # Number of instructions fetched each cycle (Total)
system.cpu0.fetch.rateDist::1               787151529     34.15%     87.78% # Number of instructions fetched each cycle (Total)
system.cpu0.fetch.rateDist::2               144633016      6.28%     94.06% # Number of instructions fetched each cycle (Total)
system.cpu0.fetch.rateDist::3               111996983      4.86%     98.92% # Number of instructions fetched each cycle (Total)
system.cpu0.fetch.rateDist::4                19651948      0.85%     99.77% # Number of instructions fetched each cycle (Total)
system.cpu0.fetch.rateDist::5                 2718680      0.12%     99.89% # Number of instructions fetched each cycle (Total)
system.cpu0.fetch.rateDist::6                  528761      0.02%     99.91% # Number of instructions fetched each cycle (Total)
system.cpu0.fetch.rateDist::7                     419      0.00%     99.91% # Number of instructions fetched each cycle (Total)
system.cpu0.fetch.rateDist::8                 2104084      0.09%    100.00% # Number of instructions fetched each cycle (Total)
system.cpu0.fetch.rateDist::overflows               0      0.00%    100.00% # Number of instructions fetched each cycle (Total)
system.cpu0.fetch.rateDist::min_value               0                       # Number of instructions fetched each cycle (Total)
system.cpu0.fetch.rateDist::max_value               8                       # Number of instructions fetched each cycle (Total)
system.cpu0.fetch.rateDist::total          2304879422                       # Number of instructions fetched each cycle (Total)
system.cpu0.fp_regfile_reads                       44                       # number of floating regfile reads
system.cpu0.fp_regfile_writes                      24                       # number of floating regfile writes
system.cpu0.idleCycles                      191319641                       # Total number of cycles that the CPU has spent unscheduled due to idling
system.cpu0.iew.branchMispredicts            15151663                       # Number of branch mispredicts detected at execute
system.cpu0.iew.exec_branches               344852956                       # Number of branches executed
system.cpu0.iew.exec_nop                            0                       # number of nop insts executed
system.cpu0.iew.exec_rate                    0.575486                       # Inst execution rate
system.cpu0.iew.exec_refs                   636975157                       # number of memory reference insts executed
system.cpu0.iew.exec_stores                 167675884                       # Number of stores executed
system.cpu0.iew.exec_swp                            0                       # number of swp insts executed
system.cpu0.iew.iewBlockCycles              359922839                       # Number of cycles IEW is blocking
system.cpu0.iew.iewDispLoadInsts            466220415                       # Number of dispatched load instructions
system.cpu0.iew.iewDispNonSpecInsts           2106189                       # Number of dispatched non-speculative instructions
system.cpu0.iew.iewDispSquashedInsts          8691518                       # Number of squashed instructions skipped by dispatch
system.cpu0.iew.iewDispStoreInsts           168367287                       # Number of dispatched store instructions
system.cpu0.iew.iewDispatchedInsts         1449269921                       # Number of instructions dispatched to IQ
system.cpu0.iew.iewExecLoadInsts            469299273                       # Number of load instructions executed
system.cpu0.iew.iewExecSquashedInsts         10593314                       # Number of squashed instructions skipped in execute
system.cpu0.iew.iewExecutedInsts           1436528277                       # Number of executed instructions
system.cpu0.iew.iewIQFullEvents               2128776                       # Number of times the IQ has become full, causing a stall
system.cpu0.iew.iewIdleCycles                       0                       # Number of cycles IEW is idle
system.cpu0.iew.iewLSQFullEvents              6689518                       # Number of times the LSQ has become full, causing a stall
system.cpu0.iew.iewSquashCycles              15046338                       # Number of cycles IEW is squashing
system.cpu0.iew.iewUnblockCycles             11241299                       # Number of cycles IEW is unblocking
system.cpu0.iew.lsq.thread0.blockedLoads            0                       # Number of blocked loads due to partial load-store forwarding
system.cpu0.iew.lsq.thread0.cacheBlocked       185070                       # Number of times an access to memory failed due to the cache being blocked
system.cpu0.iew.lsq.thread0.forwLoads        26813676                       # Number of loads that had data forwarded from stores
system.cpu0.iew.lsq.thread0.ignoredResponses        57844                       # Number of memory responses ignored because the instruction is squashed
system.cpu0.iew.lsq.thread0.invAddrLoads            0                       # Number of loads ignored due to an invalid address
system.cpu0.iew.lsq.thread0.invAddrSwpfs            0                       # Number of software prefetches ignored due to an invalid address
system.cpu0.iew.lsq.thread0.memOrderViolation         9163                       # Number of memory ordering violations
system.cpu0.iew.lsq.thread0.rescheduledLoads      8432188                       # Number of loads that were rescheduled
system.cpu0.iew.lsq.thread0.squashedLoads     61048545                       # Number of loads squashed
system.cpu0.iew.lsq.thread0.squashedStores     15080952                       # Number of stores squashed
system.cpu0.iew.memOrderViolationEvents          9163                       # Number of memory order violations
system.cpu0.iew.predictedNotTakenIncorrect       736841                       # Number of branches that were predicted not taken incorrectly
system.cpu0.iew.predictedTakenIncorrect      14414822                       # Number of branches that were predicted taken incorrectly
system.cpu0.iew.wb_consumers                656487748                       # num instructions consuming a value
system.cpu0.iew.wb_count                   1420923902                       # cumulative count of insts written-back
system.cpu0.iew.wb_fanout                    0.840173                       # average fanout of values written-back
system.cpu0.iew.wb_producers                551563174                       # num instructions producing a value
system.cpu0.iew.wb_rate                      0.569235                       # insts written-back per cycle
system.cpu0.iew.wb_sent                    1421003225                       # cumulative count of insts sent to commit
system.cpu0.int_regfile_reads              1756837950                       # number of integer regfile reads
system.cpu0.int_regfile_writes              920006986                       # number of integer regfile writes
system.cpu0.ipc                              0.527428                       # IPC: Instructions Per Cycle
system.cpu0.ipc_total                        0.527428                       # IPC: Total IPC of All Threads
system.cpu0.iq.FU_type_0::No_OpClass          4205629      0.29%      0.29% # Type of FU issued
system.cpu0.iq.FU_type_0::IntAlu            790986420     54.66%     54.95% # Type of FU issued
system.cpu0.iq.FU_type_0::IntMult            11848406      0.82%     55.77% # Type of FU issued
system.cpu0.iq.FU_type_0::IntDiv              2100468      0.15%     55.91% # Type of FU issued
system.cpu0.iq.FU_type_0::FloatAdd                  0      0.00%     55.91% # Type of FU issued
system.cpu0.iq.FU_type_0::FloatCmp                  4      0.00%     55.91% # Type of FU issued
system.cpu0.iq.FU_type_0::FloatCvt                 12      0.00%     55.91% # Type of FU issued
system.cpu0.iq.FU_type_0::FloatMult                 0      0.00%     55.91% # Type of FU issued
system.cpu0.iq.FU_type_0::FloatMultAcc              0      0.00%     55.91% # Type of FU issued
system.cpu0.iq.FU_type_0::FloatDiv                  2      0.00%     55.91% # Type of FU issued
system.cpu0.iq.FU_type_0::FloatMisc                 4      0.00%     55.91% # Type of FU issued
system.cpu0.iq.FU_type_0::FloatSqrt                 0      0.00%     55.91% # Type of FU issued
system.cpu0.iq.FU_type_0::SimdAdd                   0      0.00%     55.91% # Type of FU issued
system.cpu0.iq.FU_type_0::SimdAddAcc                0      0.00%     55.91% # Type of FU issued
system.cpu0.iq.FU_type_0::SimdAlu                   0      0.00%     55.91% # Type of FU issued
system.cpu0.iq.FU_type_0::SimdCmp                   0      0.00%     55.91% # Type of FU issued
system.cpu0.iq.FU_type_0::SimdCvt                   0      0.00%     55.91% # Type of FU issued
system.cpu0.iq.FU_type_0::SimdMisc                  0      0.00%     55.91% # Type of FU issued
system.cpu0.iq.FU_type_0::SimdMult                  0      0.00%     55.91% # Type of FU issued
system.cpu0.iq.FU_type_0::SimdMultAcc               0      0.00%     55.91% # Type of FU issued
system.cpu0.iq.FU_type_0::SimdShift                 0      0.00%     55.91% # Type of FU issued
system.cpu0.iq.FU_type_0::SimdShiftAcc              0      0.00%     55.91% # Type of FU issued
system.cpu0.iq.FU_type_0::SimdDiv                   0      0.00%     55.91% # Type of FU issued
system.cpu0.iq.FU_type_0::SimdSqrt                  0      0.00%     55.91% # Type of FU issued
system.cpu0.iq.FU_type_0::SimdFloatAdd              0      0.00%     55.91% # Type of FU issued
system.cpu0.iq.FU_type_0::SimdFloatAlu              0      0.00%     55.91% # Type of FU issued
system.cpu0.iq.FU_type_0::SimdFloatCmp              0      0.00%     55.91% # Type of FU issued
system.cpu0.iq.FU_type_0::SimdFloatCvt              0      0.00%     55.91% # Type of FU issued
system.cpu0.iq.FU_type_0::SimdFloatDiv              0      0.00%     55.91% # Type of FU issued
system.cpu0.iq.FU_type_0::SimdFloatMisc             0      0.00%     55.91% # Type of FU issued
system.cpu0.iq.FU_type_0::SimdFloatMult             0      0.00%     55.91% # Type of FU issued
system.cpu0.iq.FU_type_0::SimdFloatMultAcc            0      0.00%     55.91% # Type of FU issued
system.cpu0.iq.FU_type_0::SimdFloatSqrt             0      0.00%     55.91% # Type of FU issued
system.cpu0.iq.FU_type_0::SimdReduceAdd             0      0.00%     55.91% # Type of FU issued
system.cpu0.iq.FU_type_0::SimdReduceAlu             0      0.00%     55.91% # Type of FU issued
system.cpu0.iq.FU_type_0::SimdReduceCmp             0      0.00%     55.91% # Type of FU issued
system.cpu0.iq.FU_type_0::SimdFloatReduceAdd            0      0.00%     55.91% # Type of FU issued
system.cpu0.iq.FU_type_0::SimdFloatReduceCmp            0      0.00%     55.91% # Type of FU issued
system.cpu0.iq.FU_type_0::SimdAes                   0      0.00%     55.91% # Type of FU issued
system.cpu0.iq.FU_type_0::SimdAesMix                0      0.00%     55.91% # Type of FU issued
system.cpu0.iq.FU_type_0::SimdSha1Hash              0      0.00%     55.91% # Type of FU issued
system.cpu0.iq.FU_type_0::SimdSha1Hash2             0      0.00%     55.91% # Type of FU issued
system.cpu0.iq.FU_type_0::SimdSha256Hash            0      0.00%     55.91% # Type of FU issued
system.cpu0.iq.FU_type_0::SimdSha256Hash2            0      0.00%     55.91% # Type of FU issued
system.cpu0.iq.FU_type_0::SimdShaSigma2             0      0.00%     55.91% # Type of FU issued
system.cpu0.iq.FU_type_0::SimdShaSigma3             0      0.00%     55.91% # Type of FU issued
system.cpu0.iq.FU_type_0::SimdPredAlu               0      0.00%     55.91% # Type of FU issued
system.cpu0.iq.FU_type_0::MemRead           472174252     32.63%     88.54% # Type of FU issued
system.cpu0.iq.FU_type_0::MemWrite          165806364     11.46%    100.00% # Type of FU issued
system.cpu0.iq.FU_type_0::FloatMemRead             10      0.00%    100.00% # Type of FU issued
system.cpu0.iq.FU_type_0::FloatMemWrite            20      0.00%    100.00% # Type of FU issued
system.cpu0.iq.FU_type_0::IprAccess                 0      0.00%    100.00% # Type of FU issued
system.cpu0.iq.FU_type_0::InstPrefetch              0      0.00%    100.00% # Type of FU issued
system.cpu0.iq.FU_type_0::total            1447121591                       # Type of FU issued
system.cpu0.iq.fp_alu_accesses                     56                       # Number of floating point alu accesses
system.cpu0.iq.fp_inst_queue_reads                108                       # Number of floating instruction queue reads
system.cpu0.iq.fp_inst_queue_wakeup_accesses           52                       # Number of floating instruction queue wakeup accesses
system.cpu0.iq.fp_inst_queue_writes                54                       # Number of floating instruction queue writes
system.cpu0.iq.fu_busy_cnt                    2734682                       # FU busy when requested
system.cpu0.iq.fu_busy_rate                  0.001890                       # FU busy rate (busy events/executed inst)
system.cpu0.iq.fu_full::No_OpClass                  0      0.00%      0.00% # attempts to use FU when none available
system.cpu0.iq.fu_full::IntAlu                 427015     15.61%     15.61% # attempts to use FU when none available
system.cpu0.iq.fu_full::IntMult                     0      0.00%     15.61% # attempts to use FU when none available
system.cpu0.iq.fu_full::IntDiv                      0      0.00%     15.61% # attempts to use FU when none available
system.cpu0.iq.fu_full::FloatAdd                    0      0.00%     15.61% # attempts to use FU when none available
system.cpu0.iq.fu_full::FloatCmp                    0      0.00%     15.61% # attempts to use FU when none available
system.cpu0.iq.fu_full::FloatCvt                    0      0.00%     15.61% # attempts to use FU when none available
system.cpu0.iq.fu_full::FloatMult                   0      0.00%     15.61% # attempts to use FU when none available
system.cpu0.iq.fu_full::FloatMultAcc                0      0.00%     15.61% # attempts to use FU when none available
system.cpu0.iq.fu_full::FloatDiv                    0      0.00%     15.61% # attempts to use FU when none available
system.cpu0.iq.fu_full::FloatMisc                   0      0.00%     15.61% # attempts to use FU when none available
system.cpu0.iq.fu_full::FloatSqrt                   0      0.00%     15.61% # attempts to use FU when none available
system.cpu0.iq.fu_full::SimdAdd                     0      0.00%     15.61% # attempts to use FU when none available
system.cpu0.iq.fu_full::SimdAddAcc                  0      0.00%     15.61% # attempts to use FU when none available
system.cpu0.iq.fu_full::SimdAlu                     0      0.00%     15.61% # attempts to use FU when none available
system.cpu0.iq.fu_full::SimdCmp                     0      0.00%     15.61% # attempts to use FU when none available
system.cpu0.iq.fu_full::SimdCvt                     0      0.00%     15.61% # attempts to use FU when none available
system.cpu0.iq.fu_full::SimdMisc                    0      0.00%     15.61% # attempts to use FU when none available
system.cpu0.iq.fu_full::SimdMult                    0      0.00%     15.61% # attempts to use FU when none available
system.cpu0.iq.fu_full::SimdMultAcc                 0      0.00%     15.61% # attempts to use FU when none available
system.cpu0.iq.fu_full::SimdShift                   0      0.00%     15.61% # attempts to use FU when none available
system.cpu0.iq.fu_full::SimdShiftAcc                0      0.00%     15.61% # attempts to use FU when none available
system.cpu0.iq.fu_full::SimdDiv                     0      0.00%     15.61% # attempts to use FU when none available
system.cpu0.iq.fu_full::SimdSqrt                    0      0.00%     15.61% # attempts to use FU when none available
system.cpu0.iq.fu_full::SimdFloatAdd                0      0.00%     15.61% # attempts to use FU when none available
system.cpu0.iq.fu_full::SimdFloatAlu                0      0.00%     15.61% # attempts to use FU when none available
system.cpu0.iq.fu_full::SimdFloatCmp                0      0.00%     15.61% # attempts to use FU when none available
system.cpu0.iq.fu_full::SimdFloatCvt                0      0.00%     15.61% # attempts to use FU when none available
system.cpu0.iq.fu_full::SimdFloatDiv                0      0.00%     15.61% # attempts to use FU when none available
system.cpu0.iq.fu_full::SimdFloatMisc               0      0.00%     15.61% # attempts to use FU when none available
system.cpu0.iq.fu_full::SimdFloatMult               0      0.00%     15.61% # attempts to use FU when none available
system.cpu0.iq.fu_full::SimdFloatMultAcc            0      0.00%     15.61% # attempts to use FU when none available
system.cpu0.iq.fu_full::SimdFloatSqrt               0      0.00%     15.61% # attempts to use FU when none available
system.cpu0.iq.fu_full::SimdReduceAdd               0      0.00%     15.61% # attempts to use FU when none available
system.cpu0.iq.fu_full::SimdReduceAlu               0      0.00%     15.61% # attempts to use FU when none available
system.cpu0.iq.fu_full::SimdReduceCmp               0      0.00%     15.61% # attempts to use FU when none available
system.cpu0.iq.fu_full::SimdFloatReduceAdd            0      0.00%     15.61% # attempts to use FU when none available
system.cpu0.iq.fu_full::SimdFloatReduceCmp            0      0.00%     15.61% # attempts to use FU when none available
system.cpu0.iq.fu_full::SimdAes                     0      0.00%     15.61% # attempts to use FU when none available
system.cpu0.iq.fu_full::SimdAesMix                  0      0.00%     15.61% # attempts to use FU when none available
system.cpu0.iq.fu_full::SimdSha1Hash                0      0.00%     15.61% # attempts to use FU when none available
system.cpu0.iq.fu_full::SimdSha1Hash2               0      0.00%     15.61% # attempts to use FU when none available
system.cpu0.iq.fu_full::SimdSha256Hash              0      0.00%     15.61% # attempts to use FU when none available
system.cpu0.iq.fu_full::SimdSha256Hash2             0      0.00%     15.61% # attempts to use FU when none available
system.cpu0.iq.fu_full::SimdShaSigma2               0      0.00%     15.61% # attempts to use FU when none available
system.cpu0.iq.fu_full::SimdShaSigma3               0      0.00%     15.61% # attempts to use FU when none available
system.cpu0.iq.fu_full::SimdPredAlu                 0      0.00%     15.61% # attempts to use FU when none available
system.cpu0.iq.fu_full::MemRead               1927154     70.47%     86.09% # attempts to use FU when none available
system.cpu0.iq.fu_full::MemWrite               380509     13.91%    100.00% # attempts to use FU when none available
system.cpu0.iq.fu_full::FloatMemRead                0      0.00%    100.00% # attempts to use FU when none available
system.cpu0.iq.fu_full::FloatMemWrite               4      0.00%    100.00% # attempts to use FU when none available
system.cpu0.iq.fu_full::IprAccess                   0      0.00%    100.00% # attempts to use FU when none available
system.cpu0.iq.fu_full::InstPrefetch                0      0.00%    100.00% # attempts to use FU when none available
system.cpu0.iq.int_alu_accesses            1445650588                       # Number of integer alu accesses
system.cpu0.iq.int_inst_queue_reads        5202005556                       # Number of integer instruction queue reads
system.cpu0.iq.int_inst_queue_wakeup_accesses   1420923850                       # Number of integer instruction queue wakeup accesses
system.cpu0.iq.int_inst_queue_writes       1579878952                       # Number of integer instruction queue writes
system.cpu0.iq.iqInstsAdded                1442959876                       # Number of instructions added to the IQ (excludes non-spec)
system.cpu0.iq.iqInstsIssued               1447121591                       # Number of instructions issued
system.cpu0.iq.iqNonSpecInstsAdded            6310045                       # Number of non-speculative instructions added to the IQ
system.cpu0.iq.iqSquashedInstsExamined      130600303                       # Number of squashed instructions iterated over during squash; mainly for profiling
system.cpu0.iq.iqSquashedInstsIssued           148378                       # Number of squashed instructions issued
system.cpu0.iq.iqSquashedNonSpecRemoved           274                       # Number of squashed non-spec instructions that were removed
system.cpu0.iq.iqSquashedOperandsExamined     23213234                       # Number of squashed operands that are examined and possibly removed from graph
system.cpu0.iq.issued_per_cycle::samples   2304879422                       # Number of insts issued each cycle
system.cpu0.iq.issued_per_cycle::mean        0.627851                       # Number of insts issued each cycle
system.cpu0.iq.issued_per_cycle::stdev       0.861687                       # Number of insts issued each cycle
system.cpu0.iq.issued_per_cycle::underflows            0      0.00%      0.00% # Number of insts issued each cycle
system.cpu0.iq.issued_per_cycle::0         1294345780     56.16%     56.16% # Number of insts issued each cycle
system.cpu0.iq.issued_per_cycle::1          691767641     30.01%     86.17% # Number of insts issued each cycle
system.cpu0.iq.issued_per_cycle::2          224604256      9.74%     95.91% # Number of insts issued each cycle
system.cpu0.iq.issued_per_cycle::3           75657291      3.28%     99.20% # Number of insts issued each cycle
system.cpu0.iq.issued_per_cycle::4           15681408      0.68%     99.88% # Number of insts issued each cycle
system.cpu0.iq.issued_per_cycle::5            1149544      0.05%     99.93% # Number of insts issued each cycle
system.cpu0.iq.issued_per_cycle::6            1216254      0.05%     99.98% # Number of insts issued each cycle
system.cpu0.iq.issued_per_cycle::7             255295      0.01%     99.99% # Number of insts issued each cycle
system.cpu0.iq.issued_per_cycle::8             201953      0.01%    100.00% # Number of insts issued each cycle
system.cpu0.iq.issued_per_cycle::overflows            0      0.00%    100.00% # Number of insts issued each cycle
system.cpu0.iq.issued_per_cycle::min_value            0                       # Number of insts issued each cycle
system.cpu0.iq.issued_per_cycle::max_value            8                       # Number of insts issued each cycle
system.cpu0.iq.issued_per_cycle::total     2304879422                       # Number of insts issued each cycle
system.cpu0.iq.rate                          0.579730                       # Inst issue rate
system.cpu0.iq.vec_alu_accesses                     0                       # Number of vector alu accesses
system.cpu0.iq.vec_inst_queue_reads                 0                       # Number of vector instruction queue reads
system.cpu0.iq.vec_inst_queue_wakeup_accesses            0                       # Number of vector instruction queue wakeup accesses
system.cpu0.iq.vec_inst_queue_writes                0                       # Number of vector instruction queue writes
system.cpu0.itb.accesses                            0                       # DTB accesses
system.cpu0.itb.hits                                0                       # DTB hits
system.cpu0.itb.misses                              0                       # DTB misses
system.cpu0.itb.read_accesses                       0                       # DTB read accesses
system.cpu0.itb.read_hits                           0                       # DTB read hits
system.cpu0.itb.read_misses                         0                       # DTB read misses
system.cpu0.itb.write_accesses                      0                       # DTB write accesses
system.cpu0.itb.write_hits                          0                       # DTB write hits
system.cpu0.itb.write_misses                        0                       # DTB write misses
system.cpu0.memDep0.conflictingLoads         18320320                       # Number of conflicting loads.
system.cpu0.memDep0.conflictingStores         3120605                       # Number of conflicting stores.
system.cpu0.memDep0.insertedLoads           466220415                       # Number of loads inserted to the mem dependence unit.
system.cpu0.memDep0.insertedStores          168367287                       # Number of stores inserted to the mem dependence unit.
system.cpu0.misc_regfile_reads                   1901                       # number of misc regfile reads
system.cpu0.misc_regfile_writes                    22                       # number of misc regfile writes
system.cpu0.numCycles                      2496199063                       # number of cpu cycles simulated
system.cpu0.numWorkItemsCompleted                   0                       # number of work items this cpu completed
system.cpu0.numWorkItemsStarted                     0                       # number of work items this cpu started
system.cpu0.quiesceCycles                     4765253                       # Total number of cycles that CPU has spent quiesced or waiting for an interrupt
system.cpu0.rename.BlockCycles              386187448                       # Number of cycles rename is blocking
system.cpu0.rename.CommittedMaps            845209042                       # Number of HB maps that are committed
system.cpu0.rename.IQFullEvents              13983871                       # Number of times rename has blocked due to IQ full
system.cpu0.rename.IdleCycles               854492966                       # Number of cycles rename is idle
system.cpu0.rename.LQFullEvents              11163998                       # Number of times rename has blocked due to LQ full
system.cpu0.rename.ROBFullEvents                19353                       # Number of times rename has blocked due to ROB full
system.cpu0.rename.RenameLookups           1796913373                       # Number of register rename lookups that rename has made
system.cpu0.rename.RenamedInsts            1470750528                       # Number of instructions processed by rename
system.cpu0.rename.RenamedOperands          962697408                       # Number of destination operands rename has renamed
system.cpu0.rename.RunCycles               1007357914                       # Number of cycles rename is running
system.cpu0.rename.SQFullEvents              16070293                       # Number of times rename has blocked due to SQ full
system.cpu0.rename.SquashCycles              15046338                       # Number of cycles rename is squashing
system.cpu0.rename.UnblockCycles             41635329                       # Number of cycles rename is unblocking
system.cpu0.rename.UndoneMaps               117488362                       # Number of HB maps that are undone due to squashing
system.cpu0.rename.fp_rename_lookups               44                       # Number of floating rename lookups
system.cpu0.rename.int_rename_lookups      1796913329                       # Number of integer rename lookups
system.cpu0.rename.serializeStallCycles        159427                       # count of cycles rename stalled for serializing inst
system.cpu0.rename.serializingInsts              5848                       # count of serializing insts renamed
system.cpu0.rename.skidInsts                 29747699                       # count of insts added to the skid buffer
system.cpu0.rename.tempSerializingInsts          5837                       # count of temporary serializing insts renamed
system.cpu0.rob.rob_reads                  3683772819                       # The number of ROB reads
system.cpu0.rob.rob_writes                 2928623888                       # The number of ROB writes
system.cpu0.timesIdled                       23289373                       # Number of times that the entire CPU went into an idle state and unscheduled itself
system.cpu0.workload.numSyscalls                 1868                       # Number of system calls
system.cpu1.branchPred.BTBCorrect                   0                       # Number of correct BTB predictions (this stat may not work properly.
system.cpu1.branchPred.BTBHitPct            90.789629                       # BTB Hit Percentage
system.cpu1.branchPred.BTBHits               20094631                       # Number of BTB hits
system.cpu1.branchPred.BTBLookups            22133179                       # Number of BTB lookups
system.cpu1.branchPred.RASInCorrect                 0                       # Number of incorrect RAS predictions.
system.cpu1.branchPred.condIncorrect          2734911                       # Number of conditional branches incorrect
system.cpu1.branchPred.condPredicted         29612415                       # Number of conditional branches predicted
system.cpu1.branchPred.indirectHits           1043089                       # Number of indirect target hits.
system.cpu1.branchPred.indirectLookups        1056224                       # Number of indirect predictor lookups.
system.cpu1.branchPred.indirectMisses           13135                       # Number of indirect misses.
system.cpu1.branchPred.lookups               34052402                       # Number of BP lookups
system.cpu1.branchPred.usedRAS                      0                       # Number of times the RAS was used to get a target.
system.cpu1.branchPredindirectMispredicted        48024                       # Number of mispredicted indirect branches.
system.cpu1.commit.amos                       2100002                       # Number of atomic instructions committed
system.cpu1.commit.branchMispredicts          1946902                       # The number of times a branch was mispredicted
system.cpu1.commit.branches                  28121156                       # Number of branches committed
system.cpu1.commit.bw_lim_events              3124151                       # number cycles where commit BW limit reached
system.cpu1.commit.commitNonSpecStalls        6300693                       # The number of times commit has been forced to stall to communicate backwards
system.cpu1.commit.commitSquashedInsts       13432649                       # The number of squashed insts skipped by commit
system.cpu1.commit.committedInsts           120075228                       # Number of instructions committed
system.cpu1.commit.committedOps             122175412                       # Number of ops (including micro ops) committed
system.cpu1.commit.committed_per_cycle::samples    443453877                       # Number of insts commited each cycle
system.cpu1.commit.committed_per_cycle::mean     0.275509                       # Number of insts commited each cycle
system.cpu1.commit.committed_per_cycle::stdev     1.011319                       # Number of insts commited each cycle
system.cpu1.commit.committed_per_cycle::underflows            0      0.00%      0.00% # Number of insts commited each cycle
system.cpu1.commit.committed_per_cycle::0    390677143     88.10%     88.10% # Number of insts commited each cycle
system.cpu1.commit.committed_per_cycle::1     26995066      6.09%     94.19% # Number of insts commited each cycle
system.cpu1.commit.committed_per_cycle::2      9870147      2.23%     96.41% # Number of insts commited each cycle
system.cpu1.commit.committed_per_cycle::3      7471481      1.68%     98.10% # Number of insts commited each cycle
system.cpu1.commit.committed_per_cycle::4      1765966      0.40%     98.49% # Number of insts commited each cycle
system.cpu1.commit.committed_per_cycle::5       897953      0.20%     98.70% # Number of insts commited each cycle
system.cpu1.commit.committed_per_cycle::6      2085018      0.47%     99.17% # Number of insts commited each cycle
system.cpu1.commit.committed_per_cycle::7       566952      0.13%     99.30% # Number of insts commited each cycle
system.cpu1.commit.committed_per_cycle::8      3124151      0.70%    100.00% # Number of insts commited each cycle
system.cpu1.commit.committed_per_cycle::overflows            0      0.00%    100.00% # Number of insts commited each cycle
system.cpu1.commit.committed_per_cycle::min_value            0                       # Number of insts commited each cycle
system.cpu1.commit.committed_per_cycle::max_value            8                       # Number of insts commited each cycle
system.cpu1.commit.committed_per_cycle::total    443453877                       # Number of insts commited each cycle
system.cpu1.commit.fp_insts                        12                       # Number of committed floating point instructions.
system.cpu1.commit.function_calls             1798255                       # Number of function calls committed.
system.cpu1.commit.int_insts                116612380                       # Number of committed integer instructions.
system.cpu1.commit.loads                     30177475                       # Number of loads committed
system.cpu1.commit.membars                    4200126                       # Number of memory barriers committed
system.cpu1.commit.op_class_0::No_OpClass      4200126      3.44%      3.44% # Class of committed instruction
system.cpu1.commit.op_class_0::IntAlu        76674394     62.76%     66.20% # Class of committed instruction
system.cpu1.commit.op_class_0::IntMult             44      0.00%     66.20% # Class of committed instruction
system.cpu1.commit.op_class_0::IntDiv              88      0.00%     66.20% # Class of committed instruction
system.cpu1.commit.op_class_0::FloatAdd             0      0.00%     66.20% # Class of committed instruction
system.cpu1.commit.op_class_0::FloatCmp             0      0.00%     66.20% # Class of committed instruction
system.cpu1.commit.op_class_0::FloatCvt             0      0.00%     66.20% # Class of committed instruction
system.cpu1.commit.op_class_0::FloatMult            0      0.00%     66.20% # Class of committed instruction
system.cpu1.commit.op_class_0::FloatMultAcc            0      0.00%     66.20% # Class of committed instruction
system.cpu1.commit.op_class_0::FloatDiv             0      0.00%     66.20% # Class of committed instruction
system.cpu1.commit.op_class_0::FloatMisc            0      0.00%     66.20% # Class of committed instruction
system.cpu1.commit.op_class_0::FloatSqrt            0      0.00%     66.20% # Class of committed instruction
system.cpu1.commit.op_class_0::SimdAdd              0      0.00%     66.20% # Class of committed instruction
system.cpu1.commit.op_class_0::SimdAddAcc            0      0.00%     66.20% # Class of committed instruction
system.cpu1.commit.op_class_0::SimdAlu              0      0.00%     66.20% # Class of committed instruction
system.cpu1.commit.op_class_0::SimdCmp              0      0.00%     66.20% # Class of committed instruction
system.cpu1.commit.op_class_0::SimdCvt              0      0.00%     66.20% # Class of committed instruction
system.cpu1.commit.op_class_0::SimdMisc             0      0.00%     66.20% # Class of committed instruction
system.cpu1.commit.op_class_0::SimdMult             0      0.00%     66.20% # Class of committed instruction
system.cpu1.commit.op_class_0::SimdMultAcc            0      0.00%     66.20% # Class of committed instruction
system.cpu1.commit.op_class_0::SimdShift            0      0.00%     66.20% # Class of committed instruction
system.cpu1.commit.op_class_0::SimdShiftAcc            0      0.00%     66.20% # Class of committed instruction
system.cpu1.commit.op_class_0::SimdDiv              0      0.00%     66.20% # Class of committed instruction
system.cpu1.commit.op_class_0::SimdSqrt             0      0.00%     66.20% # Class of committed instruction
system.cpu1.commit.op_class_0::SimdFloatAdd            0      0.00%     66.20% # Class of committed instruction
system.cpu1.commit.op_class_0::SimdFloatAlu            0      0.00%     66.20% # Class of committed instruction
system.cpu1.commit.op_class_0::SimdFloatCmp            0      0.00%     66.20% # Class of committed instruction
system.cpu1.commit.op_class_0::SimdFloatCvt            0      0.00%     66.20% # Class of committed instruction
system.cpu1.commit.op_class_0::SimdFloatDiv            0      0.00%     66.20% # Class of committed instruction
system.cpu1.commit.op_class_0::SimdFloatMisc            0      0.00%     66.20% # Class of committed instruction
system.cpu1.commit.op_class_0::SimdFloatMult            0      0.00%     66.20% # Class of committed instruction
system.cpu1.commit.op_class_0::SimdFloatMultAcc            0      0.00%     66.20% # Class of committed instruction
system.cpu1.commit.op_class_0::SimdFloatSqrt            0      0.00%     66.20% # Class of committed instruction
system.cpu1.commit.op_class_0::SimdReduceAdd            0      0.00%     66.20% # Class of committed instruction
system.cpu1.commit.op_class_0::SimdReduceAlu            0      0.00%     66.20% # Class of committed instruction
system.cpu1.commit.op_class_0::SimdReduceCmp            0      0.00%     66.20% # Class of committed instruction
system.cpu1.commit.op_class_0::SimdFloatReduceAdd            0      0.00%     66.20% # Class of committed instruction
system.cpu1.commit.op_class_0::SimdFloatReduceCmp            0      0.00%     66.20% # Class of committed instruction
system.cpu1.commit.op_class_0::SimdAes              0      0.00%     66.20% # Class of committed instruction
system.cpu1.commit.op_class_0::SimdAesMix            0      0.00%     66.20% # Class of committed instruction
system.cpu1.commit.op_class_0::SimdSha1Hash            0      0.00%     66.20% # Class of committed instruction
system.cpu1.commit.op_class_0::SimdSha1Hash2            0      0.00%     66.20% # Class of committed instruction
system.cpu1.commit.op_class_0::SimdSha256Hash            0      0.00%     66.20% # Class of committed instruction
system.cpu1.commit.op_class_0::SimdSha256Hash2            0      0.00%     66.20% # Class of committed instruction
system.cpu1.commit.op_class_0::SimdShaSigma2            0      0.00%     66.20% # Class of committed instruction
system.cpu1.commit.op_class_0::SimdShaSigma3            0      0.00%     66.20% # Class of committed instruction
system.cpu1.commit.op_class_0::SimdPredAlu            0      0.00%     66.20% # Class of committed instruction
system.cpu1.commit.op_class_0::MemRead       32277477     26.42%     92.61% # Class of committed instruction
system.cpu1.commit.op_class_0::MemWrite       9023271      7.39%    100.00% # Class of committed instruction
system.cpu1.commit.op_class_0::FloatMemRead            0      0.00%    100.00% # Class of committed instruction
system.cpu1.commit.op_class_0::FloatMemWrite           12      0.00%    100.00% # Class of committed instruction
system.cpu1.commit.op_class_0::IprAccess            0      0.00%    100.00% # Class of committed instruction
system.cpu1.commit.op_class_0::InstPrefetch            0      0.00%    100.00% # Class of committed instruction
system.cpu1.commit.op_class_0::total        122175412                       # Class of committed instruction
system.cpu1.commit.refs                      41300760                       # Number of memory references committed
system.cpu1.commit.swp_count                        0                       # Number of s/w prefetches committed
system.cpu1.commit.vec_insts                        0                       # Number of committed Vector instructions.
system.cpu1.committedInsts                  120075228                       # Number of Instructions Simulated
system.cpu1.committedOps                    122175412                       # Number of Ops (including micro ops) Simulated
system.cpu1.cpi                              3.733040                       # CPI: Cycles Per Instruction
system.cpu1.cpi_total                        3.733040                       # CPI: Total CPI of All Threads
system.cpu1.decode.BlockedCycles            345669718                       # Number of cycles decode is blocked
system.cpu1.decode.BranchMispred               833864                       # Number of times decode detected a branch misprediction
system.cpu1.decode.BranchResolved            19214295                       # Number of times decode resolved a branch
system.cpu1.decode.DecodedInsts             142083977                       # Number of instructions handled by decode
system.cpu1.decode.IdleCycles                26976623                       # Number of cycles decode is idle
system.cpu1.decode.RunCycles                 66858946                       # Number of cycles decode is running
system.cpu1.decode.SquashCycles               1948122                       # Number of cycles decode is squashing
system.cpu1.decode.SquashedInsts              2016160                       # Number of squashed instructions handled by decode
system.cpu1.decode.UnblockCycles              4992484                       # Number of cycles decode is unblocking
system.cpu1.dtb.accesses                            0                       # DTB accesses
system.cpu1.dtb.hits                                0                       # DTB hits
system.cpu1.dtb.misses                              0                       # DTB misses
system.cpu1.dtb.read_accesses                       0                       # DTB read accesses
system.cpu1.dtb.read_hits                           0                       # DTB read hits
system.cpu1.dtb.read_misses                         0                       # DTB read misses
system.cpu1.dtb.write_accesses                      0                       # DTB write accesses
system.cpu1.dtb.write_hits                          0                       # DTB write hits
system.cpu1.dtb.write_misses                        0                       # DTB write misses
system.cpu1.fetch.Branches                   34052402                       # Number of branches that fetch encountered
system.cpu1.fetch.CacheLines                 24634040                       # Number of cache lines fetched
system.cpu1.fetch.Cycles                    416441129                       # Number of cycles fetch has run and was not squashing or blocked
system.cpu1.fetch.IcacheSquashes               469913                       # Number of outstanding Icache misses that were squashed
system.cpu1.fetch.Insts                     146788235                       # Number of instructions fetch has processed
system.cpu1.fetch.MiscStallCycles                   1                       # Number of cycles fetch has spent waiting on interrupts, or bad addresses, or out of MSHRs
system.cpu1.fetch.SquashCycles                5472262                       # Number of cycles fetch has spent squashing
system.cpu1.fetch.branchRate                 0.075968                       # Number of branch fetches per cycle
system.cpu1.fetch.icacheStallCycles          27268632                       # Number of cycles fetch is stalled on an Icache miss
system.cpu1.fetch.predictedBranches          21137720                       # Number of branches that fetch has predicted taken
system.cpu1.fetch.rate                       0.327473                       # Number of inst fetches per cycle
system.cpu1.fetch.rateDist::samples         446445893                       # Number of instructions fetched each cycle (Total)
system.cpu1.fetch.rateDist::mean             0.333498                       # Number of instructions fetched each cycle (Total)
system.cpu1.fetch.rateDist::stdev            0.755834                       # Number of instructions fetched each cycle (Total)
system.cpu1.fetch.rateDist::underflows              0      0.00%      0.00% # Number of instructions fetched each cycle (Total)
system.cpu1.fetch.rateDist::0               350700360     78.55%     78.55% # Number of instructions fetched each cycle (Total)
system.cpu1.fetch.rateDist::1                61280980     13.73%     92.28% # Number of instructions fetched each cycle (Total)
system.cpu1.fetch.rateDist::2                19997411      4.48%     96.76% # Number of instructions fetched each cycle (Total)
system.cpu1.fetch.rateDist::3                11626870      2.60%     99.36% # Number of instructions fetched each cycle (Total)
system.cpu1.fetch.rateDist::4                 1969842      0.44%     99.81% # Number of instructions fetched each cycle (Total)
system.cpu1.fetch.rateDist::5                  369979      0.08%     99.89% # Number of instructions fetched each cycle (Total)
system.cpu1.fetch.rateDist::6                  500226      0.11%    100.00% # Number of instructions fetched each cycle (Total)
system.cpu1.fetch.rateDist::7                      10      0.00%    100.00% # Number of instructions fetched each cycle (Total)
system.cpu1.fetch.rateDist::8                     215      0.00%    100.00% # Number of instructions fetched each cycle (Total)
system.cpu1.fetch.rateDist::overflows               0      0.00%    100.00% # Number of instructions fetched each cycle (Total)
system.cpu1.fetch.rateDist::min_value               0                       # Number of instructions fetched each cycle (Total)
system.cpu1.fetch.rateDist::max_value               8                       # Number of instructions fetched each cycle (Total)
system.cpu1.fetch.rateDist::total           446445893                       # Number of instructions fetched each cycle (Total)
system.cpu1.fp_regfile_reads                       12                       # number of floating regfile reads
system.cpu1.idleCycles                        1799678                       # Total number of cycles that the CPU has spent unscheduled due to idling
system.cpu1.iew.branchMispredicts             2033730                       # Number of branch mispredicts detected at execute
system.cpu1.iew.exec_branches                29950692                       # Number of branches executed
system.cpu1.iew.exec_nop                            0                       # number of nop insts executed
system.cpu1.iew.exec_rate                    0.292651                       # Inst execution rate
system.cpu1.iew.exec_refs                    44925250                       # number of memory reference insts executed
system.cpu1.iew.exec_stores                  11478832                       # Number of stores executed
system.cpu1.iew.exec_swp                            0                       # number of swp insts executed
system.cpu1.iew.iewBlockCycles              294460169                       # Number of cycles IEW is blocking
system.cpu1.iew.iewDispLoadInsts             34030124                       # Number of dispatched load instructions
system.cpu1.iew.iewDispNonSpecInsts           2100673                       # Number of dispatched non-speculative instructions
system.cpu1.iew.iewDispSquashedInsts          2049189                       # Number of squashed instructions skipped by dispatch
system.cpu1.iew.iewDispStoreInsts            11871665                       # Number of dispatched store instructions
system.cpu1.iew.iewDispatchedInsts          135572332                       # Number of instructions dispatched to IQ
system.cpu1.iew.iewExecLoadInsts             33446418                       # Number of load instructions executed
system.cpu1.iew.iewExecSquashedInsts          1975612                       # Number of squashed instructions skipped in execute
system.cpu1.iew.iewExecutedInsts            131179677                       # Number of executed instructions
system.cpu1.iew.iewIQFullEvents               2178676                       # Number of times the IQ has become full, causing a stall
system.cpu1.iew.iewIdleCycles                       0                       # Number of cycles IEW is idle
system.cpu1.iew.iewLSQFullEvents              5489720                       # Number of times the LSQ has become full, causing a stall
system.cpu1.iew.iewSquashCycles               1948122                       # Number of cycles IEW is squashing
system.cpu1.iew.iewUnblockCycles             10176690                       # Number of cycles IEW is unblocking
system.cpu1.iew.lsq.thread0.blockedLoads            0                       # Number of blocked loads due to partial load-store forwarding
system.cpu1.iew.lsq.thread0.cacheBlocked        61319                       # Number of times an access to memory failed due to the cache being blocked
system.cpu1.iew.lsq.thread0.forwLoads          897878                       # Number of loads that had data forwarded from stores
system.cpu1.iew.lsq.thread0.ignoredResponses        39569                       # Number of memory responses ignored because the instruction is squashed
system.cpu1.iew.lsq.thread0.invAddrLoads            0                       # Number of loads ignored due to an invalid address
system.cpu1.iew.lsq.thread0.invAddrSwpfs            0                       # Number of software prefetches ignored due to an invalid address
system.cpu1.iew.lsq.thread0.memOrderViolation         1582                       # Number of memory ordering violations
system.cpu1.iew.lsq.thread0.rescheduledLoads         8650                       # Number of loads that were rescheduled
system.cpu1.iew.lsq.thread0.squashedLoads      3852649                       # Number of loads squashed
system.cpu1.iew.lsq.thread0.squashedStores       748380                       # Number of stores squashed
system.cpu1.iew.memOrderViolationEvents          1582                       # Number of memory order violations
system.cpu1.iew.predictedNotTakenIncorrect       526909                       # Number of branches that were predicted not taken incorrectly
system.cpu1.iew.predictedTakenIncorrect       1506821                       # Number of branches that were predicted taken incorrectly
system.cpu1.iew.wb_consumers                 74838418                       # num instructions consuming a value
system.cpu1.iew.wb_count                    129832409                       # cumulative count of insts written-back
system.cpu1.iew.wb_fanout                    0.842283                       # average fanout of values written-back
system.cpu1.iew.wb_producers                 63035150                       # num instructions producing a value
system.cpu1.iew.wb_rate                      0.289646                       # insts written-back per cycle
system.cpu1.iew.wb_sent                     129884089                       # cumulative count of insts sent to commit
system.cpu1.int_regfile_reads               166509419                       # number of integer regfile reads
system.cpu1.int_regfile_writes               87352650                       # number of integer regfile writes
system.cpu1.ipc                              0.267878                       # IPC: Instructions Per Cycle
system.cpu1.ipc_total                        0.267878                       # IPC: Total IPC of All Threads
system.cpu1.iq.FU_type_0::No_OpClass          4200235      3.15%      3.15% # Type of FU issued
system.cpu1.iq.FU_type_0::IntAlu             83472129     62.69%     65.84% # Type of FU issued
system.cpu1.iq.FU_type_0::IntMult                  47      0.00%     65.84% # Type of FU issued
system.cpu1.iq.FU_type_0::IntDiv                   88      0.00%     65.84% # Type of FU issued
system.cpu1.iq.FU_type_0::FloatAdd                  0      0.00%     65.84% # Type of FU issued
system.cpu1.iq.FU_type_0::FloatCmp                  0      0.00%     65.84% # Type of FU issued
system.cpu1.iq.FU_type_0::FloatCvt                  0      0.00%     65.84% # Type of FU issued
system.cpu1.iq.FU_type_0::FloatMult                 0      0.00%     65.84% # Type of FU issued
system.cpu1.iq.FU_type_0::FloatMultAcc              0      0.00%     65.84% # Type of FU issued
system.cpu1.iq.FU_type_0::FloatDiv                  0      0.00%     65.84% # Type of FU issued
system.cpu1.iq.FU_type_0::FloatMisc                 0      0.00%     65.84% # Type of FU issued
system.cpu1.iq.FU_type_0::FloatSqrt                 0      0.00%     65.84% # Type of FU issued
system.cpu1.iq.FU_type_0::SimdAdd                   0      0.00%     65.84% # Type of FU issued
system.cpu1.iq.FU_type_0::SimdAddAcc                0      0.00%     65.84% # Type of FU issued
system.cpu1.iq.FU_type_0::SimdAlu                   0      0.00%     65.84% # Type of FU issued
system.cpu1.iq.FU_type_0::SimdCmp                   0      0.00%     65.84% # Type of FU issued
system.cpu1.iq.FU_type_0::SimdCvt                   0      0.00%     65.84% # Type of FU issued
system.cpu1.iq.FU_type_0::SimdMisc                  0      0.00%     65.84% # Type of FU issued
system.cpu1.iq.FU_type_0::SimdMult                  0      0.00%     65.84% # Type of FU issued
system.cpu1.iq.FU_type_0::SimdMultAcc               0      0.00%     65.84% # Type of FU issued
system.cpu1.iq.FU_type_0::SimdShift                 0      0.00%     65.84% # Type of FU issued
system.cpu1.iq.FU_type_0::SimdShiftAcc              0      0.00%     65.84% # Type of FU issued
system.cpu1.iq.FU_type_0::SimdDiv                   0      0.00%     65.84% # Type of FU issued
system.cpu1.iq.FU_type_0::SimdSqrt                  0      0.00%     65.84% # Type of FU issued
system.cpu1.iq.FU_type_0::SimdFloatAdd              0      0.00%     65.84% # Type of FU issued
system.cpu1.iq.FU_type_0::SimdFloatAlu              0      0.00%     65.84% # Type of FU issued
system.cpu1.iq.FU_type_0::SimdFloatCmp              0      0.00%     65.84% # Type of FU issued
system.cpu1.iq.FU_type_0::SimdFloatCvt              0      0.00%     65.84% # Type of FU issued
system.cpu1.iq.FU_type_0::SimdFloatDiv              0      0.00%     65.84% # Type of FU issued
system.cpu1.iq.FU_type_0::SimdFloatMisc             0      0.00%     65.84% # Type of FU issued
system.cpu1.iq.FU_type_0::SimdFloatMult             0      0.00%     65.84% # Type of FU issued
system.cpu1.iq.FU_type_0::SimdFloatMultAcc            0      0.00%     65.84% # Type of FU issued
system.cpu1.iq.FU_type_0::SimdFloatSqrt             0      0.00%     65.84% # Type of FU issued
system.cpu1.iq.FU_type_0::SimdReduceAdd             0      0.00%     65.84% # Type of FU issued
system.cpu1.iq.FU_type_0::SimdReduceAlu             0      0.00%     65.84% # Type of FU issued
system.cpu1.iq.FU_type_0::SimdReduceCmp             0      0.00%     65.84% # Type of FU issued
system.cpu1.iq.FU_type_0::SimdFloatReduceAdd            0      0.00%     65.84% # Type of FU issued
system.cpu1.iq.FU_type_0::SimdFloatReduceCmp            0      0.00%     65.84% # Type of FU issued
system.cpu1.iq.FU_type_0::SimdAes                   0      0.00%     65.84% # Type of FU issued
system.cpu1.iq.FU_type_0::SimdAesMix                0      0.00%     65.84% # Type of FU issued
system.cpu1.iq.FU_type_0::SimdSha1Hash              0      0.00%     65.84% # Type of FU issued
system.cpu1.iq.FU_type_0::SimdSha1Hash2             0      0.00%     65.84% # Type of FU issued
system.cpu1.iq.FU_type_0::SimdSha256Hash            0      0.00%     65.84% # Type of FU issued
system.cpu1.iq.FU_type_0::SimdSha256Hash2            0      0.00%     65.84% # Type of FU issued
system.cpu1.iq.FU_type_0::SimdShaSigma2             0      0.00%     65.84% # Type of FU issued
system.cpu1.iq.FU_type_0::SimdShaSigma3             0      0.00%     65.84% # Type of FU issued
system.cpu1.iq.FU_type_0::SimdPredAlu               0      0.00%     65.84% # Type of FU issued
system.cpu1.iq.FU_type_0::MemRead            36024017     27.05%     92.90% # Type of FU issued
system.cpu1.iq.FU_type_0::MemWrite            9458761      7.10%    100.00% # Type of FU issued
system.cpu1.iq.FU_type_0::FloatMemRead              0      0.00%    100.00% # Type of FU issued
system.cpu1.iq.FU_type_0::FloatMemWrite            12      0.00%    100.00% # Type of FU issued
system.cpu1.iq.FU_type_0::IprAccess                 0      0.00%    100.00% # Type of FU issued
system.cpu1.iq.FU_type_0::InstPrefetch              0      0.00%    100.00% # Type of FU issued
system.cpu1.iq.FU_type_0::total             133155289                       # Type of FU issued
system.cpu1.iq.fp_alu_accesses                     16                       # Number of floating point alu accesses
system.cpu1.iq.fp_inst_queue_reads                 28                       # Number of floating instruction queue reads
system.cpu1.iq.fp_inst_queue_wakeup_accesses           12                       # Number of floating instruction queue wakeup accesses
system.cpu1.iq.fp_inst_queue_writes                12                       # Number of floating instruction queue writes
system.cpu1.iq.fu_busy_cnt                    2521570                       # FU busy when requested
system.cpu1.iq.fu_busy_rate                  0.018937                       # FU busy rate (busy events/executed inst)
system.cpu1.iq.fu_full::No_OpClass                  0      0.00%      0.00% # attempts to use FU when none available
system.cpu1.iq.fu_full::IntAlu                 405641     16.09%     16.09% # attempts to use FU when none available
system.cpu1.iq.fu_full::IntMult                     0      0.00%     16.09% # attempts to use FU when none available
system.cpu1.iq.fu_full::IntDiv                      0      0.00%     16.09% # attempts to use FU when none available
system.cpu1.iq.fu_full::FloatAdd                    0      0.00%     16.09% # attempts to use FU when none available
system.cpu1.iq.fu_full::FloatCmp                    0      0.00%     16.09% # attempts to use FU when none available
system.cpu1.iq.fu_full::FloatCvt                    0      0.00%     16.09% # attempts to use FU when none available
system.cpu1.iq.fu_full::FloatMult                   0      0.00%     16.09% # attempts to use FU when none available
system.cpu1.iq.fu_full::FloatMultAcc                0      0.00%     16.09% # attempts to use FU when none available
system.cpu1.iq.fu_full::FloatDiv                    0      0.00%     16.09% # attempts to use FU when none available
system.cpu1.iq.fu_full::FloatMisc                   0      0.00%     16.09% # attempts to use FU when none available
system.cpu1.iq.fu_full::FloatSqrt                   0      0.00%     16.09% # attempts to use FU when none available
system.cpu1.iq.fu_full::SimdAdd                     0      0.00%     16.09% # attempts to use FU when none available
system.cpu1.iq.fu_full::SimdAddAcc                  0      0.00%     16.09% # attempts to use FU when none available
system.cpu1.iq.fu_full::SimdAlu                     0      0.00%     16.09% # attempts to use FU when none available
system.cpu1.iq.fu_full::SimdCmp                     0      0.00%     16.09% # attempts to use FU when none available
system.cpu1.iq.fu_full::SimdCvt                     0      0.00%     16.09% # attempts to use FU when none available
system.cpu1.iq.fu_full::SimdMisc                    0      0.00%     16.09% # attempts to use FU when none available
system.cpu1.iq.fu_full::SimdMult                    0      0.00%     16.09% # attempts to use FU when none available
system.cpu1.iq.fu_full::SimdMultAcc                 0      0.00%     16.09% # attempts to use FU when none available
system.cpu1.iq.fu_full::SimdShift                   0      0.00%     16.09% # attempts to use FU when none available
system.cpu1.iq.fu_full::SimdShiftAcc                0      0.00%     16.09% # attempts to use FU when none available
system.cpu1.iq.fu_full::SimdDiv                     0      0.00%     16.09% # attempts to use FU when none available
system.cpu1.iq.fu_full::SimdSqrt                    0      0.00%     16.09% # attempts to use FU when none available
system.cpu1.iq.fu_full::SimdFloatAdd                0      0.00%     16.09% # attempts to use FU when none available
system.cpu1.iq.fu_full::SimdFloatAlu                0      0.00%     16.09% # attempts to use FU when none available
system.cpu1.iq.fu_full::SimdFloatCmp                0      0.00%     16.09% # attempts to use FU when none available
system.cpu1.iq.fu_full::SimdFloatCvt                0      0.00%     16.09% # attempts to use FU when none available
system.cpu1.iq.fu_full::SimdFloatDiv                0      0.00%     16.09% # attempts to use FU when none available
system.cpu1.iq.fu_full::SimdFloatMisc               0      0.00%     16.09% # attempts to use FU when none available
system.cpu1.iq.fu_full::SimdFloatMult               0      0.00%     16.09% # attempts to use FU when none available
system.cpu1.iq.fu_full::SimdFloatMultAcc            0      0.00%     16.09% # attempts to use FU when none available
system.cpu1.iq.fu_full::SimdFloatSqrt               0      0.00%     16.09% # attempts to use FU when none available
system.cpu1.iq.fu_full::SimdReduceAdd               0      0.00%     16.09% # attempts to use FU when none available
system.cpu1.iq.fu_full::SimdReduceAlu               0      0.00%     16.09% # attempts to use FU when none available
system.cpu1.iq.fu_full::SimdReduceCmp               0      0.00%     16.09% # attempts to use FU when none available
system.cpu1.iq.fu_full::SimdFloatReduceAdd            0      0.00%     16.09% # attempts to use FU when none available
system.cpu1.iq.fu_full::SimdFloatReduceCmp            0      0.00%     16.09% # attempts to use FU when none available
system.cpu1.iq.fu_full::SimdAes                     0      0.00%     16.09% # attempts to use FU when none available
system.cpu1.iq.fu_full::SimdAesMix                  0      0.00%     16.09% # attempts to use FU when none available
system.cpu1.iq.fu_full::SimdSha1Hash                0      0.00%     16.09% # attempts to use FU when none available
system.cpu1.iq.fu_full::SimdSha1Hash2               0      0.00%     16.09% # attempts to use FU when none available
system.cpu1.iq.fu_full::SimdSha256Hash              0      0.00%     16.09% # attempts to use FU when none available
system.cpu1.iq.fu_full::SimdSha256Hash2             0      0.00%     16.09% # attempts to use FU when none available
system.cpu1.iq.fu_full::SimdShaSigma2               0      0.00%     16.09% # attempts to use FU when none available
system.cpu1.iq.fu_full::SimdShaSigma3               0      0.00%     16.09% # attempts to use FU when none available
system.cpu1.iq.fu_full::SimdPredAlu                 0      0.00%     16.09% # attempts to use FU when none available
system.cpu1.iq.fu_full::MemRead               1768050     70.12%     86.20% # attempts to use FU when none available
system.cpu1.iq.fu_full::MemWrite               347875     13.80%    100.00% # attempts to use FU when none available
[...]
system.cpu1.dcache.ReadReq_avg_mshr_miss_latency::total 55492.918414                       # average ReadReq mshr miss latency
system.cpu1.dcache.WriteReq_hits::.cpu1.data      2495878                       # number of WriteReq hits
system.cpu1.dcache.WriteReq_hits::total       2495878                       # number of WriteReq hits
system.cpu1.dcache.WriteReq_misses::.cpu1.data      1692967                       # number of WriteReq misses
system.cpu1.dcache.WriteReq_misses::total      1692967                       # number of WriteReq misses
system.cpu1.dcache.WriteReq_miss_latency::.cpu1.data  90627367894                       # number of WriteReq miss cycles
system.cpu1.dcache.WriteReq_miss_latency::total  90627367894                       # number of WriteReq miss cycles
system.cpu1.dcache.WriteReq_accesses::.cpu1.data      4188845                       # number of WriteReq accesses(hits+misses)
system.cpu1.dcache.WriteReq_accesses::total      4188845                       # number of WriteReq accesses(hits+misses)
system.cpu1.dcache.WriteReq_miss_rate::.cpu1.data     0.404161                       # miss rate for WriteReq accesses
system.cpu1.dcache.WriteReq_miss_rate::total     0.404161                       # miss rate for WriteReq accesses
system.cpu1.dcache.WriteReq_avg_miss_latency::.cpu1.data 53531.680118                       # average WriteReq miss latency
system.cpu1.dcache.WriteReq_avg_miss_latency::total 53531.680118                       # average WriteReq miss latency
system.cpu1.dcache.WriteReq_mshr_hits::.cpu1.data      1471676                       # number of WriteReq MSHR hits
system.cpu1.dcache.WriteReq_mshr_hits::total      1471676                       # number of WriteReq MSHR hits
system.cpu1.dcache.WriteReq_mshr_misses::.cpu1.data       221291                       # number of WriteReq MSHR misses
system.cpu1.dcache.WriteReq_mshr_misses::total       221291                       # number of WriteReq MSHR misses
system.cpu1.dcache.WriteReq_mshr_miss_latency::.cpu1.data  11887527930                       # number of WriteReq MSHR miss cycles
system.cpu1.dcache.WriteReq_mshr_miss_latency::total  11887527930                       # number of WriteReq MSHR miss cycles
system.cpu1.dcache.WriteReq_mshr_miss_rate::.cpu1.data     0.052829                       # mshr miss rate for WriteReq accesses
system.cpu1.dcache.WriteReq_mshr_miss_rate::total     0.052829                       # mshr miss rate for WriteReq accesses
system.cpu1.dcache.WriteReq_avg_mshr_miss_latency::.cpu1.data 53718.985092                       # average WriteReq mshr miss latency
system.cpu1.dcache.WriteReq_avg_mshr_miss_latency::total 53718.985092                       # average WriteReq mshr miss latency
system.cpu1.dcache.LoadLockedReq_hits::.cpu1.data        35453                       # number of LoadLockedReq hits
system.cpu1.dcache.LoadLockedReq_hits::total        35453                       # number of LoadLockedReq hits
system.cpu1.dcache.LoadLockedReq_misses::.cpu1.data          430                       # number of LoadLockedReq misses
system.cpu1.dcache.LoadLockedReq_misses::total          430                       # number of LoadLockedReq misses
system.cpu1.dcache.LoadLockedReq_miss_latency::.cpu1.data     27700000                       # number of LoadLockedReq miss cycles
system.cpu1.dcache.LoadLockedReq_miss_latency::total     27700000                       # number of LoadLockedReq miss cycles
system.cpu1.dcache.LoadLockedReq_accesses::.cpu1.data        35883                       # number of LoadLockedReq accesses(hits+misses)
system.cpu1.dcache.LoadLockedReq_accesses::total        35883                       # number of LoadLockedReq accesses(hits+misses)
system.cpu1.dcache.LoadLockedReq_miss_rate::.cpu1.data     0.011983                       # miss rate for LoadLockedReq accesses
system.cpu1.dcache.LoadLockedReq_miss_rate::total     0.011983                       # miss rate for LoadLockedReq accesses
system.cpu1.dcache.LoadLockedReq_avg_miss_latency::.cpu1.data 64418.604651                       # average LoadLockedReq miss latency
system.cpu1.dcache.LoadLockedReq_avg_miss_latency::total 64418.604651                       # average LoadLockedReq miss latency
system.cpu1.dcache.LoadLockedReq_mshr_hits::.cpu1.data          197                       # number of LoadLockedReq MSHR hits
system.cpu1.dcache.LoadLockedReq_mshr_hits::total          197                       # number of LoadLockedReq MSHR hits
system.cpu1.dcache.LoadLockedReq_mshr_misses::.cpu1.data          233                       # number of LoadLockedReq MSHR misses
system.cpu1.dcache.LoadLockedReq_mshr_misses::total          233                       # number of LoadLockedReq MSHR misses
system.cpu1.dcache.LoadLockedReq_mshr_miss_latency::.cpu1.data     14780500                       # number of LoadLockedReq MSHR miss cycles
system.cpu1.dcache.LoadLockedReq_mshr_miss_latency::total     14780500                       # number of LoadLockedReq MSHR miss cycles
system.cpu1.dcache.LoadLockedReq_mshr_miss_rate::.cpu1.data     0.006493                       # mshr miss rate for LoadLockedReq accesses
system.cpu1.dcache.LoadLockedReq_mshr_miss_rate::total     0.006493                       # mshr miss rate for LoadLockedReq accesses
system.cpu1.dcache.LoadLockedReq_avg_mshr_miss_latency::.cpu1.data 63435.622318                       # average LoadLockedReq mshr miss latency
system.cpu1.dcache.LoadLockedReq_avg_mshr_miss_latency::total 63435.622318                       # average LoadLockedReq mshr miss latency
system.cpu1.dcache.StoreCondReq_hits::.cpu1.data        35127                       # number of StoreCondReq hits
system.cpu1.dcache.StoreCondReq_hits::total        35127                       # number of StoreCondReq hits
system.cpu1.dcache.StoreCondReq_misses::.cpu1.data          536                       # number of StoreCondReq misses
system.cpu1.dcache.StoreCondReq_misses::total          536                       # number of StoreCondReq misses
system.cpu1.dcache.StoreCondReq_miss_latency::.cpu1.data      3817000                       # number of StoreCondReq miss cycles
system.cpu1.dcache.StoreCondReq_miss_latency::total      3817000                       # number of StoreCondReq miss cycles
system.cpu1.dcache.StoreCondReq_accesses::.cpu1.data        35663                       # number of StoreCondReq accesses(hits+misses)
system.cpu1.dcache.StoreCondReq_accesses::total        35663                       # number of StoreCondReq accesses(hits+misses)
system.cpu1.dcache.StoreCondReq_miss_rate::.cpu1.data     0.015030                       # miss rate for StoreCondReq accesses
system.cpu1.dcache.StoreCondReq_miss_rate::total     0.015030                       # miss rate for StoreCondReq accesses
system.cpu1.dcache.StoreCondReq_avg_miss_latency::.cpu1.data  7121.268657                       # average StoreCondReq miss latency
system.cpu1.dcache.StoreCondReq_avg_miss_latency::total  7121.268657                       # average StoreCondReq miss latency
system.cpu1.dcache.StoreCondReq_mshr_misses::.cpu1.data          534                       # number of StoreCondReq MSHR misses
system.cpu1.dcache.StoreCondReq_mshr_misses::total          534                       # number of StoreCondReq MSHR misses
system.cpu1.dcache.StoreCondReq_mshr_miss_latency::.cpu1.data      3285000                       # number of StoreCondReq MSHR miss cycles
system.cpu1.dcache.StoreCondReq_mshr_miss_latency::total      3285000                       # number of StoreCondReq MSHR miss cycles
system.cpu1.dcache.StoreCondReq_mshr_miss_rate::.cpu1.data     0.014974                       # mshr miss rate for StoreCondReq accesses
system.cpu1.dcache.StoreCondReq_mshr_miss_rate::total     0.014974                       # mshr miss rate for StoreCondReq accesses
system.cpu1.dcache.StoreCondReq_avg_mshr_miss_latency::.cpu1.data  6151.685393                       # average StoreCondReq mshr miss latency
system.cpu1.dcache.StoreCondReq_avg_mshr_miss_latency::total  6151.685393                       # average StoreCondReq mshr miss latency
system.cpu1.dcache.StoreCondFailReq_miss_latency::.cpu1.data        31000                       # number of StoreCondFailReq miss cycles
system.cpu1.dcache.StoreCondFailReq_miss_latency::total        31000                       # number of StoreCondFailReq miss cycles
system.cpu1.dcache.StoreCondFailReq_avg_miss_latency::.cpu1.data          inf                       # average StoreCondFailReq miss latency
system.cpu1.dcache.StoreCondFailReq_avg_miss_latency::total          inf                       # average StoreCondFailReq miss latency
system.cpu1.dcache.StoreCondFailReq_mshr_miss_latency::.cpu1.data        29000                       # number of StoreCondFailReq MSHR miss cycles
system.cpu1.dcache.StoreCondFailReq_mshr_miss_latency::total        29000                       # number of StoreCondFailReq MSHR miss cycles
system.cpu1.dcache.StoreCondFailReq_avg_mshr_miss_latency::.cpu1.data          inf                       # average StoreCondFailReq mshr miss latency
system.cpu1.dcache.StoreCondFailReq_avg_mshr_miss_latency::total          inf                       # average StoreCondFailReq mshr miss latency
system.cpu1.dcache.SwapReq_hits::.cpu1.data          832                       # number of SwapReq hits
system.cpu1.dcache.SwapReq_hits::total            832                       # number of SwapReq hits
system.cpu1.dcache.SwapReq_misses::.cpu1.data          734                       # number of SwapReq misses
system.cpu1.dcache.SwapReq_misses::total          734                       # number of SwapReq misses
system.cpu1.dcache.SwapReq_miss_latency::.cpu1.data      7928000                       # number of SwapReq miss cycles
system.cpu1.dcache.SwapReq_miss_latency::total      7928000                       # number of SwapReq miss cycles
system.cpu1.dcache.SwapReq_accesses::.cpu1.data         1566                       # number of SwapReq accesses(hits+misses)
system.cpu1.dcache.SwapReq_accesses::total         1566                       # number of SwapReq accesses(hits+misses)
system.cpu1.dcache.SwapReq_miss_rate::.cpu1.data     0.468710                       # miss rate for SwapReq accesses
system.cpu1.dcache.SwapReq_miss_rate::total     0.468710                       # miss rate for SwapReq accesses
system.cpu1.dcache.SwapReq_avg_miss_latency::.cpu1.data 10801.089918                       # average SwapReq miss latency
system.cpu1.dcache.SwapReq_avg_miss_latency::total 10801.089918                       # average SwapReq miss latency
system.cpu1.dcache.SwapReq_mshr_misses::.cpu1.data          734                       # number of SwapReq MSHR misses
system.cpu1.dcache.SwapReq_mshr_misses::total          734                       # number of SwapReq MSHR misses
system.cpu1.dcache.SwapReq_mshr_miss_latency::.cpu1.data      7194000                       # number of SwapReq MSHR miss cycles
system.cpu1.dcache.SwapReq_mshr_miss_latency::total      7194000                       # number of SwapReq MSHR miss cycles
system.cpu1.dcache.SwapReq_mshr_miss_rate::.cpu1.data     0.468710                       # mshr miss rate for SwapReq accesses
system.cpu1.dcache.SwapReq_mshr_miss_rate::total     0.468710                       # mshr miss rate for SwapReq accesses
system.cpu1.dcache.SwapReq_avg_mshr_miss_latency::.cpu1.data  9801.089918                       # average SwapReq mshr miss latency
system.cpu1.dcache.SwapReq_avg_mshr_miss_latency::total  9801.089918                       # average SwapReq mshr miss latency
system.cpu1.dcache.tags.pwrStateResidencyTicks::UNDEFINED  62333649500                       # Cumulative time (in ticks) in various power states
system.cpu1.dcache.tags.tagsinuse           31.679500                       # Cycle average of tags in use
system.cpu1.dcache.tags.total_refs           14077134                       # Total number of references to valid blocks.
system.cpu1.dcache.tags.sampled_refs           995261                       # Sample count of references to valid blocks.
system.cpu1.dcache.tags.avg_refs            14.144163                       # Average number of references to valid blocks.
system.cpu1.dcache.tags.warmup_cycle                0                       # Cycle when the warmup percentage was hit.
system.cpu1.dcache.tags.occ_blocks::.cpu1.data    31.679500                       # Average occupied blocks per requestor
system.cpu1.dcache.tags.occ_percent::.cpu1.data     0.989984                       # Average percentage of cache occupancy
system.cpu1.dcache.tags.occ_percent::total     0.989984                       # Average percentage of cache occupancy
system.cpu1.dcache.tags.occ_task_id_blocks::1024           28                       # Occupied blocks per task id
system.cpu1.dcache.tags.age_task_id_blocks_1024::1            3                       # Occupied blocks per task id
system.cpu1.dcache.tags.age_task_id_blocks_1024::2           25                       # Occupied blocks per task id
system.cpu1.dcache.tags.occ_task_id_percent::1024     0.875000                       # Percentage of cache occupancy per task id
system.cpu1.dcache.tags.tag_accesses         42080804                       # Number of tag accesses
system.cpu1.dcache.tags.data_accesses        42080804                       # Number of data accesses
system.cpu_clk_domain.clock                       500                       # Clock period in ticks
system.tol2bus.pwrStateResidencyTicks::UNDEFINED  62333649500                       # Cumulative time (in ticks) in various power states
system.tol2bus.trans_dist::ReadResp           1648598                       # Transaction distribution
system.tol2bus.trans_dist::WritebackDirty      1858385                       # Transaction distribution
system.tol2bus.trans_dist::WritebackClean      1186902                       # Transaction distribution
system.tol2bus.trans_dist::CleanEvict         3184911                       # Transaction distribution
system.tol2bus.trans_dist::HardPFReq          2089164                       # Transaction distribution
system.tol2bus.trans_dist::UpgradeReq            2046                       # Transaction distribution
system.tol2bus.trans_dist::SCUpgradeReq          1465                       # Transaction distribution
system.tol2bus.trans_dist::UpgradeResp           3511                       # Transaction distribution
system.tol2bus.trans_dist::SCUpgradeFailReq            4                       # Transaction distribution
system.tol2bus.trans_dist::UpgradeFailResp            4                       # Transaction distribution
system.tol2bus.trans_dist::ReadExReq           473185                       # Transaction distribution
system.tol2bus.trans_dist::ReadExResp          473185                       # Transaction distribution
system.tol2bus.trans_dist::ReadCleanReq         86608                       # Transaction distribution
system.tol2bus.trans_dist::ReadSharedReq      1561990                       # Transaction distribution
system.tol2bus.trans_dist::InvalidateReq         3737                       # Transaction distribution
system.tol2bus.trans_dist::InvalidateResp         3737                       # Transaction distribution
system.tol2bus.pkt_count_system.cpu0.icache.mem_side::system.l2.cpu_side       215144                       # Packet count per connected master and slave (bytes)
system.tol2bus.pkt_count_system.cpu0.dcache.mem_side::system.l2.cpu_side      3129611                       # Packet count per connected master and slave (bytes)
system.tol2bus.pkt_count_system.cpu1.icache.mem_side::system.l2.cpu_side        44643                       # Packet count per connected master and slave (bytes)
system.tol2bus.pkt_count_system.cpu1.dcache.mem_side::system.l2.cpu_side      2982769                       # Packet count per connected master and slave (bytes)
system.tol2bus.pkt_count::total               6372167                       # Packet count per connected master and slave (bytes)
system.tol2bus.pkt_size_system.cpu0.icache.mem_side::system.l2.cpu_side      9178688                       # Cumulative packet size per connected master and slave (bytes)
system.tol2bus.pkt_size_system.cpu0.dcache.mem_side::system.l2.cpu_side    133102336                       # Cumulative packet size per connected master and slave (bytes)
system.tol2bus.pkt_size_system.cpu1.icache.mem_side::system.l2.cpu_side      1904768                       # Cumulative packet size per connected master and slave (bytes)
system.tol2bus.pkt_size_system.cpu1.dcache.mem_side::system.l2.cpu_side    127082816                       # Cumulative packet size per connected master and slave (bytes)
system.tol2bus.pkt_size::total              271268608                       # Cumulative packet size per connected master and slave (bytes)
system.tol2bus.snoops                         6205265                       # Total snoops (count)
system.tol2bus.snoopTraffic                  59424128                       # Total snoop traffic (bytes)
system.tol2bus.snoop_fanout::samples          8327230                       # Request fanout histogram
system.tol2bus.snoop_fanout::mean            0.237132                       # Request fanout histogram
system.tol2bus.snoop_fanout::stdev           0.431931                       # Request fanout histogram
system.tol2bus.snoop_fanout::underflows             0      0.00%      0.00% # Request fanout histogram
system.tol2bus.snoop_fanout::0                6376161     76.57%     76.57% # Request fanout histogram
system.tol2bus.snoop_fanout::1                1927486     23.15%     99.72% # Request fanout histogram
system.tol2bus.snoop_fanout::2                  23583      0.28%    100.00% # Request fanout histogram
system.tol2bus.snoop_fanout::3                      0      0.00%    100.00% # Request fanout histogram
system.tol2bus.snoop_fanout::4                      0      0.00%    100.00% # Request fanout histogram
system.tol2bus.snoop_fanout::5                      0      0.00%    100.00% # Request fanout histogram
system.tol2bus.snoop_fanout::6                      0      0.00%    100.00% # Request fanout histogram
system.tol2bus.snoop_fanout::7                      0      0.00%    100.00% # Request fanout histogram
system.tol2bus.snoop_fanout::8                      0      0.00%    100.00% # Request fanout histogram
system.tol2bus.snoop_fanout::overflows              0      0.00%    100.00% # Request fanout histogram
system.tol2bus.snoop_fanout::min_value              0                       # Request fanout histogram
system.tol2bus.snoop_fanout::max_value              2                       # Request fanout histogram
system.tol2bus.snoop_fanout::total            8327230                       # Request fanout histogram
system.tol2bus.reqLayer0.occupancy         4246293476                       # Layer occupancy (ticks)
system.tol2bus.reqLayer0.utilization              6.8                       # Layer utilization (%)
system.tol2bus.respLayer1.occupancy        1564174034                       # Layer occupancy (ticks)
system.tol2bus.respLayer1.utilization             2.5                       # Layer utilization (%)
system.tol2bus.respLayer0.occupancy         108280617                       # Layer occupancy (ticks)
system.tol2bus.respLayer0.utilization             0.2                       # Layer utilization (%)
system.tol2bus.respLayer3.occupancy        1494604694                       # Layer occupancy (ticks)
system.tol2bus.respLayer3.utilization             2.4                       # Layer utilization (%)
system.tol2bus.respLayer2.occupancy          22554034                       # Layer occupancy (ticks)
system.tol2bus.respLayer2.utilization             0.0                       # Layer utilization (%)

---------- End Simulation Statistics   ----------
