
---------- Begin Simulation Statistics ----------
final_tick                               2188872303000                       # Number of ticks from beginning of simulation (restored from checkpoints and never reset)
host_inst_rate                                  57713                       # Simulator instruction rate (inst/s)
host_mem_usage                                 703544                       # Number of bytes of host memory used
host_op_rate                                    57899                       # Simulator op (including micro ops) rate (op/s)
host_seconds                                 40801.28                       # Real time elapsed on the host
host_tick_rate                               53647141                       # Simulator tick rate (ticks/s)
sim_freq                                 1000000000000                       # Frequency of simulated ticks
sim_insts                                  2354771318                       # Number of instructions simulated
sim_ops                                    2362380240                       # Number of ops (including micro ops) simulated
sim_seconds                                  2.188872                       # Number of seconds simulated
sim_ticks                                2188872303000                       # Number of ticks simulated
system.cpu0.branchPred.BTBCorrect                   0                       # Number of correct BTB predictions (this stat may not work properly.
system.cpu0.branchPred.BTBHitPct            84.667709                       # BTB Hit Percentage
system.cpu0.branchPred.BTBHits              292691826                       # Number of BTB hits
system.cpu0.branchPred.BTBLookups           345694751                       # Number of BTB lookups
system.cpu0.branchPred.RASInCorrect                 0                       # Number of incorrect RAS predictions.
system.cpu0.branchPred.condIncorrect         18519797                       # Number of conditional branches incorrect
system.cpu0.branchPred.condPredicted        468596706                       # Number of conditional branches predicted
system.cpu0.branchPred.indirectHits          46464611                       # Number of indirect target hits.
system.cpu0.branchPred.indirectLookups       46732294                       # Number of indirect predictor lookups.
system.cpu0.branchPred.indirectMisses          267683                       # Number of indirect misses.
system.cpu0.branchPred.lookups              600867416                       # Number of BP lookups
system.cpu0.branchPred.usedRAS                      0                       # Number of times the RAS was used to get a target.
system.cpu0.branchPredindirectMispredicted      3962748                       # Number of mispredicted indirect branches.
system.cpu0.commit.amos                       3801863                       # Number of atomic instructions committed
system.cpu0.commit.branchMispredicts         13237641                       # The number of times a branch was mispredicted
system.cpu0.commit.branches                 555015646                       # Number of branches committed
system.cpu0.commit.bw_lim_events             74621240                       # number cycles where commit BW limit reached
system.cpu0.commit.commitNonSpecStalls       11419522                       # The number of times commit has been forced to stall to communicate backwards
system.cpu0.commit.commitSquashedInsts      194236587                       # The number of squashed insts skipped by commit
system.cpu0.commit.committedInsts          2224704912                       # Number of instructions committed
system.cpu0.commit.committedOps            2228512076                       # Number of ops (including micro ops) committed
system.cpu0.commit.committed_per_cycle::samples   3916332524                       # Number of insts commited each cycle
system.cpu0.commit.committed_per_cycle::mean     0.569030                       # Number of insts commited each cycle
system.cpu0.commit.committed_per_cycle::stdev     1.389186                       # Number of insts commited each cycle
system.cpu0.commit.committed_per_cycle::underflows            0      0.00%      0.00% # Number of insts commited each cycle
system.cpu0.commit.committed_per_cycle::0   2877032166     73.46%     73.46% # Number of insts commited each cycle
system.cpu0.commit.committed_per_cycle::1    621506411     15.86%     89.33% # Number of insts commited each cycle
system.cpu0.commit.committed_per_cycle::2    141408888      3.61%     92.94% # Number of insts commited each cycle
system.cpu0.commit.committed_per_cycle::3    135415835      3.45%     96.40% # Number of insts commited each cycle
system.cpu0.commit.committed_per_cycle::4     40600702      1.03%     97.43% # Number of insts commited each cycle
system.cpu0.commit.committed_per_cycle::5      7364727      0.18%     97.62% # Number of insts commited each cycle
system.cpu0.commit.committed_per_cycle::6      6933864      0.17%     97.80% # Number of insts commited each cycle
system.cpu0.commit.committed_per_cycle::7     11448691      0.29%     98.09% # Number of insts commited each cycle
system.cpu0.commit.committed_per_cycle::8     74621240      1.90%     99.99% # Number of insts commited each cycle
system.cpu0.commit.committed_per_cycle::overflows            0      0.00%     99.99% # Number of insts commited each cycle
system.cpu0.commit.committed_per_cycle::min_value            0                       # Number of insts commited each cycle
system.cpu0.commit.committed_per_cycle::max_value            8                       # Number of insts commited each cycle
system.cpu0.commit.committed_per_cycle::total   3916332524                       # Number of insts commited each cycle
system.cpu0.commit.fp_insts                        65                       # Number of committed floating point instructions.
system.cpu0.commit.function_calls            44161913                       # Number of function calls committed.
system.cpu0.commit.int_insts               2150810096                       # Number of committed integer instructions.
system.cpu0.commit.loads                    691539512                       # Number of loads committed
system.cpu0.commit.membars                    7608899                       # Number of memory barriers committed
system.cpu0.commit.op_class_0::No_OpClass      7608908      0.34%      0.34% # Class of committed instruction
system.cpu0.commit.op_class_0::IntAlu      1238690146     55.58%     55.92% # Class of committed instruction
system.cpu0.commit.op_class_0::IntMult       18316849      0.82%     56.74% # Class of committed instruction
system.cpu0.commit.op_class_0::IntDiv         3801415      0.17%     56.91% # Class of committed instruction
system.cpu0.commit.op_class_0::FloatAdd             0      0.00%     56.91% # Class of committed instruction
system.cpu0.commit.op_class_0::FloatCmp             6      0.00%     56.91% # Class of committed instruction
system.cpu0.commit.op_class_0::FloatCvt            16      0.00%     56.91% # Class of committed instruction
system.cpu0.commit.op_class_0::FloatMult            0      0.00%     56.91% # Class of committed instruction
system.cpu0.commit.op_class_0::FloatMultAcc            0      0.00%     56.91% # Class of committed instruction
system.cpu0.commit.op_class_0::FloatDiv             2      0.00%     56.91% # Class of committed instruction
system.cpu0.commit.op_class_0::FloatMisc            6      0.00%     56.91% # Class of committed instruction
system.cpu0.commit.op_class_0::FloatSqrt            0      0.00%     56.91% # Class of committed instruction
system.cpu0.commit.op_class_0::SimdAdd              0      0.00%     56.91% # Class of committed instruction
system.cpu0.commit.op_class_0::SimdAddAcc            0      0.00%     56.91% # Class of committed instruction
system.cpu0.commit.op_class_0::SimdAlu              0      0.00%     56.91% # Class of committed instruction
system.cpu0.commit.op_class_0::SimdCmp              0      0.00%     56.91% # Class of committed instruction
system.cpu0.commit.op_class_0::SimdCvt              0      0.00%     56.91% # Class of committed instruction
system.cpu0.commit.op_class_0::SimdMisc             0      0.00%     56.91% # Class of committed instruction
system.cpu0.commit.op_class_0::SimdMult             0      0.00%     56.91% # Class of committed instruction
system.cpu0.commit.op_class_0::SimdMultAcc            0      0.00%     56.91% # Class of committed instruction
system.cpu0.commit.op_class_0::SimdShift            0      0.00%     56.91% # Class of committed instruction
system.cpu0.commit.op_class_0::SimdShiftAcc            0      0.00%     56.91% # Class of committed instruction
system.cpu0.commit.op_class_0::SimdDiv              0      0.00%     56.91% # Class of committed instruction
system.cpu0.commit.op_class_0::SimdSqrt             0      0.00%     56.91% # Class of committed instruction
system.cpu0.commit.op_class_0::SimdFloatAdd            0      0.00%     56.91% # Class of committed instruction
system.cpu0.commit.op_class_0::SimdFloatAlu            0      0.00%     56.91% # Class of committed instruction
system.cpu0.commit.op_class_0::SimdFloatCmp            0      0.00%     56.91% # Class of committed instruction
system.cpu0.commit.op_class_0::SimdFloatCvt            0      0.00%     56.91% # Class of committed instruction
system.cpu0.commit.op_class_0::SimdFloatDiv            0      0.00%     56.91% # Class of committed instruction
system.cpu0.commit.op_class_0::SimdFloatMisc            0      0.00%     56.91% # Class of committed instruction
system.cpu0.commit.op_class_0::SimdFloatMult            0      0.00%     56.91% # Class of committed instruction
system.cpu0.commit.op_class_0::SimdFloatMultAcc            0      0.00%     56.91% # Class of committed instruction
system.cpu0.commit.op_class_0::SimdFloatSqrt            0      0.00%     56.91% # Class of committed instruction
system.cpu0.commit.op_class_0::SimdReduceAdd            0      0.00%     56.91% # Class of committed instruction
system.cpu0.commit.op_class_0::SimdReduceAlu            0      0.00%     56.91% # Class of committed instruction
system.cpu0.commit.op_class_0::SimdReduceCmp            0      0.00%     56.91% # Class of committed instruction
system.cpu0.commit.op_class_0::SimdFloatReduceAdd            0      0.00%     56.91% # Class of committed instruction
system.cpu0.commit.op_class_0::SimdFloatReduceCmp            0      0.00%     56.91% # Class of committed instruction
system.cpu0.commit.op_class_0::SimdAes              0      0.00%     56.91% # Class of committed instruction
system.cpu0.commit.op_class_0::SimdAesMix            0      0.00%     56.91% # Class of committed instruction
system.cpu0.commit.op_class_0::SimdSha1Hash            0      0.00%     56.91% # Class of committed instruction
system.cpu0.commit.op_class_0::SimdSha1Hash2            0      0.00%     56.91% # Class of committed instruction
system.cpu0.commit.op_class_0::SimdSha256Hash            0      0.00%     56.91% # Class of committed instruction
system.cpu0.commit.op_class_0::SimdSha256Hash2            0      0.00%     56.91% # Class of committed instruction
system.cpu0.commit.op_class_0::SimdShaSigma2            0      0.00%     56.91% # Class of committed instruction
system.cpu0.commit.op_class_0::SimdShaSigma3            0      0.00%     56.91% # Class of committed instruction
system.cpu0.commit.op_class_0::SimdPredAlu            0      0.00%     56.91% # Class of committed instruction
system.cpu0.commit.op_class_0::MemRead      695341363     31.20%     88.11% # Class of committed instruction
system.cpu0.commit.op_class_0::MemWrite     264753330     11.88%     99.99% # Class of committed instruction
system.cpu0.commit.op_class_0::FloatMemRead           12      0.00%     99.99% # Class of committed instruction
system.cpu0.commit.op_class_0::FloatMemWrite           23      0.00%     99.99% # Class of committed instruction
system.cpu0.commit.op_class_0::IprAccess            0      0.00%     99.99% # Class of committed instruction
system.cpu0.commit.op_class_0::InstPrefetch            0      0.00%     99.99% # Class of committed instruction
system.cpu0.commit.op_class_0::total       2228512076                       # Class of committed instruction
system.cpu0.commit.refs                     960094728                       # Number of memory references committed
system.cpu0.commit.swp_count                        0                       # Number of s/w prefetches committed
system.cpu0.commit.vec_insts                        0                       # Number of committed Vector instructions.
system.cpu0.committedInsts                 2224704912                       # Number of Instructions Simulated
system.cpu0.committedOps                   2228512076                       # Number of Ops (including micro ops) Simulated
system.cpu0.cpi                              1.964102                       # CPI: Cycles Per Instruction
system.cpu0.cpi_total                        1.964102                       # CPI: Total CPI of All Threads
system.cpu0.decode.BlockedCycles            737754973                       # Number of cycles decode is blocked
system.cpu0.decode.BranchMispred              5299550                       # Number of times decode detected a branch misprediction
system.cpu0.decode.BranchResolved           290720677                       # Number of times decode resolved a branch
system.cpu0.decode.DecodedInsts            2451201763                       # Number of instructions handled by decode
system.cpu0.decode.IdleCycles              1466782141                       # Number of cycles decode is idle
system.cpu0.decode.RunCycles               1716826042                       # Number of cycles decode is running
system.cpu0.decode.SquashCycles              13266184                       # Number of cycles decode is squashing
system.cpu0.decode.SquashedInsts             17483956                       # Number of squashed instructions handled by decode
system.cpu0.decode.UnblockCycles             13907814                       # Number of cycles decode is unblocking
system.cpu0.dtb.accesses                            0                       # DTB accesses
system.cpu0.dtb.hits                                0                       # DTB hits
system.cpu0.dtb.misses                              0                       # DTB misses
system.cpu0.dtb.read_accesses                       0                       # DTB read accesses
system.cpu0.dtb.read_hits                           0                       # DTB read hits
system.cpu0.dtb.read_misses                         0                       # DTB read misses
system.cpu0.dtb.write_accesses                      0                       # DTB write accesses
system.cpu0.dtb.write_hits                          0                       # DTB write hits
system.cpu0.dtb.write_misses                        0                       # DTB write misses
system.cpu0.fetch.Branches                  600867416                       # Number of branches that fetch encountered
system.cpu0.fetch.CacheLines                433586804                       # Number of cache lines fetched
system.cpu0.fetch.Cycles                   2468255888                       # Number of cycles fetch has run and was not squashing or blocked
system.cpu0.fetch.IcacheSquashes              9113150                       # Number of outstanding Icache misses that were squashed
system.cpu0.fetch.IcacheWaitRetryStallCycles          131                       # Number of stall cycles due to full MSHR
system.cpu0.fetch.Insts                    2478977987                       # Number of instructions fetch has processed
system.cpu0.fetch.MiscStallCycles                 207                       # Number of cycles fetch has spent waiting on interrupts, or bad addresses, or out of MSHRs
system.cpu0.fetch.PendingTrapStallCycles          236                       # Number of stall cycles due to pending traps
system.cpu0.fetch.SquashCycles               37096750                       # Number of cycles fetch has spent squashing
system.cpu0.fetch.branchRate                 0.137512                       # Number of branch fetches per cycle
system.cpu0.fetch.icacheStallCycles        1461732317                       # Number of cycles fetch is stalled on an Icache miss
system.cpu0.fetch.predictedBranches         339156437                       # Number of branches that fetch has predicted taken
system.cpu0.fetch.rate                       0.567330                       # Number of inst fetches per cycle
system.cpu0.fetch.rateDist::samples        3948537154                       # Number of instructions fetched each cycle (Total)
system.cpu0.fetch.rateDist::mean             0.628786                       # Number of instructions fetched each cycle (Total)
system.cpu0.fetch.rateDist::stdev            0.870527                       # Number of instructions fetched each cycle (Total)
system.cpu0.fetch.rateDist::underflows              0      0.00%      0.00% # Number of instructions fetched each cycle (Total)
system.cpu0.fetch.rateDist::0              2156804705     54.62%     54.62% # Number of instructions fetched each cycle (Total)
system.cpu0.fetch.rateDist::1              1340556932     33.95%     88.57% # Number of instructions fetched each cycle (Total)
system.cpu0.fetch.rateDist::2               277117438      7.01%     95.59% # Number of instructions fetched each cycle (Total)
system.cpu0.fetch.rateDist::3               134681059      3.41%     99.00% # Number of instructions fetched each cycle (Total)
system.cpu0.fetch.rateDist::4                21202150      0.53%     99.53% # Number of instructions fetched each cycle (Total)
system.cpu0.fetch.rateDist::5                13733757      0.34%     99.88% # Number of instructions fetched each cycle (Total)
system.cpu0.fetch.rateDist::6                  621764      0.01%     99.90% # Number of instructions fetched each cycle (Total)
system.cpu0.fetch.rateDist::7                 3809398      0.09%     99.99% # Number of instructions fetched each cycle (Total)
system.cpu0.fetch.rateDist::8                    9951      0.00%     99.99% # Number of instructions fetched each cycle (Total)
system.cpu0.fetch.rateDist::overflows               0      0.00%     99.99% # Number of instructions fetched each cycle (Total)
system.cpu0.fetch.rateDist::min_value               0                       # Number of instructions fetched each cycle (Total)
system.cpu0.fetch.rateDist::max_value               8                       # Number of instructions fetched each cycle (Total)
system.cpu0.fetch.rateDist::total          3948537154                       # Number of instructions fetched each cycle (Total)
system.cpu0.fp_regfile_reads                       62                       # number of floating regfile reads
system.cpu0.fp_regfile_writes                      35                       # number of floating regfile writes
system.cpu0.idleCycles                      421010528                       # Total number of cycles that the CPU has spent unscheduled due to idling
system.cpu0.iew.branchMispredicts            13436882                       # Number of branch mispredicts detected at execute
system.cpu0.iew.exec_branches               579387175                       # Number of branches executed
system.cpu0.iew.exec_nop                            0                       # number of nop insts executed
system.cpu0.iew.exec_rate                    0.552042                       # Inst execution rate
system.cpu0.iew.exec_refs                  1073751328                       # number of memory reference insts executed
system.cpu0.iew.exec_stores                 296042389                       # Number of stores executed
system.cpu0.iew.exec_swp                            0                       # number of swp insts executed
system.cpu0.iew.iewBlockCycles              599281957                       # Number of cycles IEW is blocking
system.cpu0.iew.iewDispLoadInsts            772888546                       # Number of dispatched load instructions
system.cpu0.iew.iewDispNonSpecInsts           3811706                       # Number of dispatched non-speculative instructions
system.cpu0.iew.iewDispSquashedInsts          6041187                       # Number of squashed instructions skipped by dispatch
system.cpu0.iew.iewDispStoreInsts           298244577                       # Number of dispatched store instructions
system.cpu0.iew.iewDispatchedInsts         2422714611                       # Number of instructions dispatched to IQ
system.cpu0.iew.iewExecLoadInsts            777708939                       # Number of load instructions executed
system.cpu0.iew.iewExecSquashedInsts          6644688                       # Number of squashed instructions skipped in execute
system.cpu0.iew.iewExecutedInsts           2412176233                       # Number of executed instructions
system.cpu0.iew.iewIQFullEvents               3719598                       # Number of times the IQ has become full, causing a stall
system.cpu0.iew.iewIdleCycles                       0                       # Number of cycles IEW is idle
system.cpu0.iew.iewLSQFullEvents             14078621                       # Number of times the LSQ has become full, causing a stall
system.cpu0.iew.iewSquashCycles              13266184                       # Number of cycles IEW is squashing
system.cpu0.iew.iewUnblockCycles             22024414                       # Number of cycles IEW is unblocking
system.cpu0.iew.lsq.thread0.blockedLoads            0                       # Number of blocked loads due to partial load-store forwarding
system.cpu0.iew.lsq.thread0.cacheBlocked       224882                       # Number of times an access to memory failed due to the cache being blocked
system.cpu0.iew.lsq.thread0.forwLoads        45640397                       # Number of loads that had data forwarded from stores
system.cpu0.iew.lsq.thread0.ignoredResponses        69301                       # Number of memory responses ignored because the instruction is squashed
system.cpu0.iew.lsq.thread0.invAddrLoads            0                       # Number of loads ignored due to an invalid address
system.cpu0.iew.lsq.thread0.invAddrSwpfs            0                       # Number of software prefetches ignored due to an invalid address
system.cpu0.iew.lsq.thread0.memOrderViolation        28759                       # Number of memory ordering violations
system.cpu0.iew.lsq.thread0.rescheduledLoads     15301902                       # Number of loads that were rescheduled
system.cpu0.iew.lsq.thread0.squashedLoads     81349034                       # Number of loads squashed
system.cpu0.iew.lsq.thread0.squashedStores     29689361                       # Number of stores squashed
system.cpu0.iew.memOrderViolationEvents         28759                       # Number of memory order violations
system.cpu0.iew.predictedNotTakenIncorrect      1963225                       # Number of branches that were predicted not taken incorrectly
system.cpu0.iew.predictedTakenIncorrect      11473657                       # Number of branches that were predicted taken incorrectly
system.cpu0.iew.wb_consumers               1015493340                       # num instructions consuming a value
system.cpu0.iew.wb_count                   2390034469                       # cumulative count of insts written-back
system.cpu0.iew.wb_fanout                    0.855492                       # average fanout of values written-back
system.cpu0.iew.wb_producers                868747309                       # num instructions producing a value
system.cpu0.iew.wb_rate                      0.546975                       # insts written-back per cycle
system.cpu0.iew.wb_sent                    2390326993                       # cumulative count of insts sent to commit
system.cpu0.int_regfile_reads              2941137772                       # number of integer regfile reads
system.cpu0.int_regfile_writes             1531721682                       # number of integer regfile writes
system.cpu0.ipc                              0.509138                       # IPC: Instructions Per Cycle
system.cpu0.ipc_total                        0.509138                       # IPC: Total IPC of All Threads
system.cpu0.iq.FU_type_0::No_OpClass          7611834      0.31%      0.31% # Type of FU issued
system.cpu0.iq.FU_type_0::IntAlu           1313326566     54.29%     54.61% # Type of FU issued
system.cpu0.iq.FU_type_0::IntMult            18332487      0.75%     55.36% # Type of FU issued
system.cpu0.iq.FU_type_0::IntDiv              3802530      0.15%     55.52% # Type of FU issued
system.cpu0.iq.FU_type_0::FloatAdd                  1      0.00%     55.52% # Type of FU issued
system.cpu0.iq.FU_type_0::FloatCmp                  6      0.00%     55.52% # Type of FU issued
system.cpu0.iq.FU_type_0::FloatCvt                 16      0.00%     55.52% # Type of FU issued
system.cpu0.iq.FU_type_0::FloatMult                 0      0.00%     55.52% # Type of FU issued
system.cpu0.iq.FU_type_0::FloatMultAcc              1      0.00%     55.52% # Type of FU issued
system.cpu0.iq.FU_type_0::FloatDiv                  2      0.00%     55.52% # Type of FU issued
system.cpu0.iq.FU_type_0::FloatMisc                 6      0.00%     55.52% # Type of FU issued
system.cpu0.iq.FU_type_0::FloatSqrt                 0      0.00%     55.52% # Type of FU issued
system.cpu0.iq.FU_type_0::SimdAdd                   0      0.00%     55.52% # Type of FU issued
system.cpu0.iq.FU_type_0::SimdAddAcc                0      0.00%     55.52% # Type of FU issued
system.cpu0.iq.FU_type_0::SimdAlu                   0      0.00%     55.52% # Type of FU issued
system.cpu0.iq.FU_type_0::SimdCmp                   0      0.00%     55.52% # Type of FU issued
system.cpu0.iq.FU_type_0::SimdCvt                   0      0.00%     55.52% # Type of FU issued
system.cpu0.iq.FU_type_0::SimdMisc                  0      0.00%     55.52% # Type of FU issued
system.cpu0.iq.FU_type_0::SimdMult                  0      0.00%     55.52% # Type of FU issued
system.cpu0.iq.FU_type_0::SimdMultAcc               0      0.00%     55.52% # Type of FU issued
system.cpu0.iq.FU_type_0::SimdShift                 0      0.00%     55.52% # Type of FU issued
system.cpu0.iq.FU_type_0::SimdShiftAcc              0      0.00%     55.52% # Type of FU issued
system.cpu0.iq.FU_type_0::SimdDiv                   0      0.00%     55.52% # Type of FU issued
system.cpu0.iq.FU_type_0::SimdSqrt                  0      0.00%     55.52% # Type of FU issued
system.cpu0.iq.FU_type_0::SimdFloatAdd              0      0.00%     55.52% # Type of FU issued
system.cpu0.iq.FU_type_0::SimdFloatAlu              0      0.00%     55.52% # Type of FU issued
system.cpu0.iq.FU_type_0::SimdFloatCmp              0      0.00%     55.52% # Type of FU issued
system.cpu0.iq.FU_type_0::SimdFloatCvt              0      0.00%     55.52% # Type of FU issued
system.cpu0.iq.FU_type_0::SimdFloatDiv              0      0.00%     55.52% # Type of FU issued
system.cpu0.iq.FU_type_0::SimdFloatMisc             0      0.00%     55.52% # Type of FU issued
system.cpu0.iq.FU_type_0::SimdFloatMult             0      0.00%     55.52% # Type of FU issued
system.cpu0.iq.FU_type_0::SimdFloatMultAcc            0      0.00%     55.52% # Type of FU issued
system.cpu0.iq.FU_type_0::SimdFloatSqrt             0      0.00%     55.52% # Type of FU issued
system.cpu0.iq.FU_type_0::SimdReduceAdd             0      0.00%     55.52% # Type of FU issued
system.cpu0.iq.FU_type_0::SimdReduceAlu             0      0.00%     55.52% # Type of FU issued
system.cpu0.iq.FU_type_0::SimdReduceCmp             0      0.00%     55.52% # Type of FU issued
system.cpu0.iq.FU_type_0::SimdFloatReduceAdd            0      0.00%     55.52% # Type of FU issued
system.cpu0.iq.FU_type_0::SimdFloatReduceCmp            0      0.00%     55.52% # Type of FU issued
system.cpu0.iq.FU_type_0::SimdAes                   0      0.00%     55.52% # Type of FU issued
system.cpu0.iq.FU_type_0::SimdAesMix                0      0.00%     55.52% # Type of FU issued
system.cpu0.iq.FU_type_0::SimdSha1Hash              0      0.00%     55.52% # Type of FU issued
system.cpu0.iq.FU_type_0::SimdSha1Hash2             0      0.00%     55.52% # Type of FU issued
system.cpu0.iq.FU_type_0::SimdSha256Hash            0      0.00%     55.52% # Type of FU issued
system.cpu0.iq.FU_type_0::SimdSha256Hash2            0      0.00%     55.52% # Type of FU issued
system.cpu0.iq.FU_type_0::SimdShaSigma2             0      0.00%     55.52% # Type of FU issued
system.cpu0.iq.FU_type_0::SimdShaSigma3             0      0.00%     55.52% # Type of FU issued
system.cpu0.iq.FU_type_0::SimdPredAlu               0      0.00%     55.52% # Type of FU issued
system.cpu0.iq.FU_type_0::MemRead           783008276     32.37%     87.89% # Type of FU issued
system.cpu0.iq.FU_type_0::MemWrite          292739157     12.10%     99.99% # Type of FU issued
system.cpu0.iq.FU_type_0::FloatMemRead             16      0.00%     99.99% # Type of FU issued
system.cpu0.iq.FU_type_0::FloatMemWrite            24      0.00%     99.99% # Type of FU issued
system.cpu0.iq.FU_type_0::IprAccess                 0      0.00%     99.99% # Type of FU issued
system.cpu0.iq.FU_type_0::InstPrefetch              0      0.00%     99.99% # Type of FU issued
system.cpu0.iq.FU_type_0::total            2418820922                       # Type of FU issued
system.cpu0.iq.fp_alu_accesses                     75                       # Number of floating point alu accesses
system.cpu0.iq.fp_inst_queue_reads                147                       # Number of floating instruction queue reads
system.cpu0.iq.fp_inst_queue_wakeup_accesses           70                       # Number of floating instruction queue wakeup accesses
system.cpu0.iq.fp_inst_queue_writes                95                       # Number of floating instruction queue writes
system.cpu0.iq.fu_busy_cnt                    4725824                       # FU busy when requested
system.cpu0.iq.fu_busy_rate                  0.001953                       # FU busy rate (busy events/executed inst)
system.cpu0.iq.fu_full::No_OpClass                  0      0.00%      0.00% # attempts to use FU when none available
system.cpu0.iq.fu_full::IntAlu                 833261     17.63%     17.63% # attempts to use FU when none available
system.cpu0.iq.fu_full::IntMult                     0      0.00%     17.63% # attempts to use FU when none available
system.cpu0.iq.fu_full::IntDiv                      0      0.00%     17.63% # attempts to use FU when none available
system.cpu0.iq.fu_full::FloatAdd                    0      0.00%     17.63% # attempts to use FU when none available
system.cpu0.iq.fu_full::FloatCmp                    0      0.00%     17.63% # attempts to use FU when none available
system.cpu0.iq.fu_full::FloatCvt                    0      0.00%     17.63% # attempts to use FU when none available
system.cpu0.iq.fu_full::FloatMult                   0      0.00%     17.63% # attempts to use FU when none available
system.cpu0.iq.fu_full::FloatMultAcc                0      0.00%     17.63% # attempts to use FU when none available
system.cpu0.iq.fu_full::FloatDiv                    0      0.00%     17.63% # attempts to use FU when none available
system.cpu0.iq.fu_full::FloatMisc                   0      0.00%     17.63% # attempts to use FU when none available
system.cpu0.iq.fu_full::FloatSqrt                   0      0.00%     17.63% # attempts to use FU when none available
system.cpu0.iq.fu_full::SimdAdd                     0      0.00%     17.63% # attempts to use FU when none available
system.cpu0.iq.fu_full::SimdAddAcc                  0      0.00%     17.63% # attempts to use FU when none available
system.cpu0.iq.fu_full::SimdAlu                     0      0.00%     17.63% # attempts to use FU when none available
system.cpu0.iq.fu_full::SimdCmp                     0      0.00%     17.63% # attempts to use FU when none available
system.cpu0.iq.fu_full::SimdCvt                     0      0.00%     17.63% # attempts to use FU when none available
system.cpu0.iq.fu_full::SimdMisc                    0      0.00%     17.63% # attempts to use FU when none available
system.cpu0.iq.fu_full::SimdMult                    0      0.00%     17.63% # attempts to use FU when none available
system.cpu0.iq.fu_full::SimdMultAcc                 0      0.00%     17.63% # attempts to use FU when none available
system.cpu0.iq.fu_full::SimdShift                   0      0.00%     17.63% # attempts to use FU when none available
system.cpu0.iq.fu_full::SimdShiftAcc                0      0.00%     17.63% # attempts to use FU when none available
system.cpu0.iq.fu_full::SimdDiv                     0      0.00%     17.63% # attempts to use FU when none available
system.cpu0.iq.fu_full::SimdSqrt                    0      0.00%     17.63% # attempts to use FU when none available
system.cpu0.iq.fu_full::SimdFloatAdd                0      0.00%     17.63% # attempts to use FU when none available
system.cpu0.iq.fu_full::SimdFloatAlu                0      0.00%     17.63% # attempts to use FU when none available
system.cpu0.iq.fu_full::SimdFloatCmp                0      0.00%     17.63% # attempts to use FU when none available
system.cpu0.iq.fu_full::SimdFloatCvt                0      0.00%     17.63% # attempts to use FU when none available
system.cpu0.iq.fu_full::SimdFloatDiv                0      0.00%     17.63% # attempts to use FU when none available
system.cpu0.iq.fu_full::SimdFloatMisc               0      0.00%     17.63% # attempts to use FU when none available
system.cpu0.iq.fu_full::SimdFloatMult               0      0.00%     17.63% # attempts to use FU when none available
system.cpu0.iq.fu_full::SimdFloatMultAcc            0      0.00%     17.63% # attempts to use FU when none available
system.cpu0.iq.fu_full::SimdFloatSqrt               0      0.00%     17.63% # attempts to use FU when none available
system.cpu0.iq.fu_full::SimdReduceAdd               0      0.00%     17.63% # attempts to use FU when none available
system.cpu0.iq.fu_full::SimdReduceAlu               0      0.00%     17.63% # attempts to use FU when none available
system.cpu0.iq.fu_full::SimdReduceCmp               0      0.00%     17.63% # attempts to use FU when none available
system.cpu0.iq.fu_full::SimdFloatReduceAdd            0      0.00%     17.63% # attempts to use FU when none available
system.cpu0.iq.fu_full::SimdFloatReduceCmp            0      0.00%     17.63% # attempts to use FU when none available
system.cpu0.iq.fu_full::SimdAes                     0      0.00%     17.63% # attempts to use FU when none available
system.cpu0.iq.fu_full::SimdAesMix                  0      0.00%     17.63% # attempts to use FU when none available
system.cpu0.iq.fu_full::SimdSha1Hash                0      0.00%     17.63% # attempts to use FU when none available
system.cpu0.iq.fu_full::SimdSha1Hash2               0      0.00%     17.63% # attempts to use FU when none available
system.cpu0.iq.fu_full::SimdSha256Hash              0      0.00%     17.63% # attempts to use FU when none available
system.cpu0.iq.fu_full::SimdSha256Hash2             0      0.00%     17.63% # attempts to use FU when none available
system.cpu0.iq.fu_full::SimdShaSigma2               0      0.00%     17.63% # attempts to use FU when none available
system.cpu0.iq.fu_full::SimdShaSigma3               0      0.00%     17.63% # attempts to use FU when none available
system.cpu0.iq.fu_full::SimdPredAlu                 0      0.00%     17.63% # attempts to use FU when none available
system.cpu0.iq.fu_full::MemRead               3382311     71.57%     89.20% # attempts to use FU when none available
system.cpu0.iq.fu_full::MemWrite               510249     10.79%     99.99% # attempts to use FU when none available
system.cpu0.iq.fu_full::FloatMemRead                0      0.00%     99.99% # attempts to use FU when none available
system.cpu0.iq.fu_full::FloatMemWrite               3      0.00%     99.99% # attempts to use FU when none available
system.cpu0.iq.fu_full::IprAccess                   0      0.00%     99.99% # attempts to use FU when none available
system.cpu0.iq.fu_full::InstPrefetch                0      0.00%     99.99% # attempts to use FU when none available
system.cpu0.iq.int_alu_accesses            2415934837                       # Number of integer alu accesses
system.cpu0.iq.int_inst_queue_reads        8791173725                       # Number of integer instruction queue reads
system.cpu0.iq.int_inst_queue_wakeup_accesses   2390034399                       # Number of integer instruction queue wakeup accesses
system.cpu0.iq.int_inst_queue_writes       2616944034                       # Number of integer instruction queue writes
system.cpu0.iq.iqInstsAdded                2411293501                       # Number of instructions added to the IQ (excludes non-spec)
system.cpu0.iq.iqInstsIssued               2418820922                       # Number of instructions issued
system.cpu0.iq.iqNonSpecInstsAdded           11421110                       # Number of non-speculative instructions added to the IQ
system.cpu0.iq.iqSquashedInstsExamined      194202531                       # Number of squashed instructions iterated over during squash; mainly for profiling
system.cpu0.iq.iqSquashedInstsIssued           269051                       # Number of squashed instructions issued
system.cpu0.iq.iqSquashedNonSpecRemoved          1588                       # Number of squashed non-spec instructions that were removed
system.cpu0.iq.iqSquashedOperandsExamined     33385726                       # Number of squashed operands that are examined and possibly removed from graph
system.cpu0.iq.issued_per_cycle::samples   3948537154                       # Number of insts issued each cycle
system.cpu0.iq.issued_per_cycle::mean        0.612586                       # Number of insts issued each cycle
system.cpu0.iq.issued_per_cycle::stdev       0.814926                       # Number of insts issued each cycle
system.cpu0.iq.issued_per_cycle::underflows            0      0.00%      0.00% # Number of insts issued each cycle
system.cpu0.iq.issued_per_cycle::0         2192721417     55.53%     55.53% # Number of insts issued each cycle
system.cpu0.iq.issued_per_cycle::1         1222937392     30.97%     86.50% # Number of insts issued each cycle
system.cpu0.iq.issued_per_cycle::2          435097531     11.01%     97.52% # Number of insts issued each cycle
system.cpu0.iq.issued_per_cycle::3           77530140      1.96%     99.48% # Number of insts issued each cycle
system.cpu0.iq.issued_per_cycle::4           11753464      0.29%     99.78% # Number of insts issued each cycle
system.cpu0.iq.issued_per_cycle::5            6025467      0.15%     99.93% # Number of insts issued each cycle
system.cpu0.iq.issued_per_cycle::6            1626444      0.04%     99.97% # Number of insts issued each cycle
system.cpu0.iq.issued_per_cycle::7             564199      0.01%     99.99% # Number of insts issued each cycle
system.cpu0.iq.issued_per_cycle::8             281100      0.00%     99.99% # Number of insts issued each cycle
system.cpu0.iq.issued_per_cycle::overflows            0      0.00%     99.99% # Number of insts issued each cycle
system.cpu0.iq.issued_per_cycle::min_value            0                       # Number of insts issued each cycle
system.cpu0.iq.issued_per_cycle::max_value            8                       # Number of insts issued each cycle
system.cpu0.iq.issued_per_cycle::total     3948537154                       # Number of insts issued each cycle
system.cpu0.iq.rate                          0.553563                       # Inst issue rate
system.cpu0.iq.vec_alu_accesses                     0                       # Number of vector alu accesses
system.cpu0.iq.vec_inst_queue_reads                 0                       # Number of vector instruction queue reads
system.cpu0.iq.vec_inst_queue_wakeup_accesses            0                       # Number of vector instruction queue wakeup accesses
system.cpu0.iq.vec_inst_queue_writes                0                       # Number of vector instruction queue writes
system.cpu0.itb.accesses                            0                       # DTB accesses
system.cpu0.itb.hits                                0                       # DTB hits
system.cpu0.itb.misses                              0                       # DTB misses
system.cpu0.itb.read_accesses                       0                       # DTB read accesses
system.cpu0.itb.read_hits                           0                       # DTB read hits
system.cpu0.itb.read_misses                         0                       # DTB read misses
system.cpu0.itb.write_accesses                      0                       # DTB write accesses
system.cpu0.itb.write_hits                          0                       # DTB write hits
system.cpu0.itb.write_misses                        0                       # DTB write misses
system.cpu0.memDep0.conflictingLoads         33594881                       # Number of conflicting loads.
system.cpu0.memDep0.conflictingStores         5890571                       # Number of conflicting stores.
system.cpu0.memDep0.insertedLoads           772888546                       # Number of loads inserted to the mem dependence unit.
system.cpu0.memDep0.insertedStores          298244577                       # Number of stores inserted to the mem dependence unit.
system.cpu0.misc_regfile_reads                   2914                       # number of misc regfile reads
system.cpu0.misc_regfile_writes                    30                       # number of misc regfile writes
system.cpu0.numCycles                      4369547682                       # number of cpu cycles simulated
system.cpu0.numWorkItemsCompleted                   0                       # number of work items this cpu completed
system.cpu0.numWorkItemsStarted                     0                       # number of work items this cpu started
system.cpu0.quiesceCycles                     8198067                       # Total number of cycles that CPU has spent quiesced or waiting for an interrupt
system.cpu0.rename.BlockCycles              651158020                       # Number of cycles rename is blocking
system.cpu0.rename.CommittedMaps           1421255573                       # Number of HB maps that are committed
system.cpu0.rename.IQFullEvents              25380812                       # Number of times rename has blocked due to IQ full
system.cpu0.rename.IdleCycles              1480866308                       # Number of cycles rename is idle
system.cpu0.rename.LQFullEvents              30033587                       # Number of times rename has blocked due to LQ full
system.cpu0.rename.ROBFullEvents               131815                       # Number of times rename has blocked due to ROB full
system.cpu0.rename.RenameLookups           2976872789                       # Number of register rename lookups that rename has made
system.cpu0.rename.RenamedInsts            2437749421                       # Number of instructions processed by rename
system.cpu0.rename.RenamedOperands         1568530426                       # Number of destination operands rename has renamed
system.cpu0.rename.RunCycles               1714673417                       # Number of cycles rename is running
system.cpu0.rename.SQFullEvents              31654661                       # Number of times rename has blocked due to SQ full
system.cpu0.rename.SquashCycles              13266184                       # Number of cycles rename is squashing
system.cpu0.rename.UnblockCycles             87977105                       # Number of cycles rename is unblocking
system.cpu0.rename.UndoneMaps               147274848                       # Number of HB maps that are undone due to squashing
system.cpu0.rename.fp_rename_lookups               62                       # Number of floating rename lookups
system.cpu0.rename.int_rename_lookups      2976872727                       # Number of integer rename lookups
system.cpu0.rename.serializeStallCycles        596120                       # count of cycles rename stalled for serializing inst
system.cpu0.rename.serializingInsts              8898                       # count of serializing insts renamed
system.cpu0.rename.skidInsts                 53019483                       # count of insts added to the skid buffer
system.cpu0.rename.tempSerializingInsts          8897                       # count of temporary serializing insts renamed
system.cpu0.rob.rob_reads                  6264422728                       # The number of ROB reads
system.cpu0.rob.rob_writes                 4877752878                       # The number of ROB writes
system.cpu0.timesIdled                       45342585                       # Number of times that the entire CPU went into an idle state and unscheduled itself
system.cpu0.workload.numSyscalls                 2869                       # Number of system calls
system.cpu1.branchPred.BTBCorrect                   0                       # Number of correct BTB predictions (this stat may not work properly.
system.cpu1.branchPred.BTBHitPct            93.709151                       # BTB Hit Percentage
system.cpu1.branchPred.BTBHits               18075726                       # Number of BTB hits
system.cpu1.branchPred.BTBLookups            19289179                       # Number of BTB lookups
system.cpu1.branchPred.RASInCorrect                 0                       # Number of incorrect RAS predictions.
system.cpu1.branchPred.condIncorrect          1788418                       # Number of conditional branches incorrect
system.cpu1.branchPred.condPredicted         32721866                       # Number of conditional branches predicted
system.cpu1.branchPred.indirectHits            920892                       # Number of indirect target hits.
system.cpu1.branchPred.indirectLookups         932605                       # Number of indirect predictor lookups.
system.cpu1.branchPred.indirectMisses           11713                       # Number of indirect misses.
system.cpu1.branchPred.lookups               35913983                       # Number of BP lookups
system.cpu1.branchPred.usedRAS                      0                       # Number of times the RAS was used to get a target.
system.cpu1.branchPredindirectMispredicted        46604                       # Number of mispredicted indirect branches.
system.cpu1.commit.amos                       3801573                       # Number of atomic instructions committed
system.cpu1.commit.branchMispredicts          1383503                       # The number of times a branch was mispredicted
system.cpu1.commit.branches                  29517093                       # Number of branches committed
system.cpu1.commit.bw_lim_events              3384334                       # number cycles where commit BW limit reached
system.cpu1.commit.commitNonSpecStalls       11405417                       # The number of times commit has been forced to stall to communicate backwards
system.cpu1.commit.commitSquashedInsts       15062392                       # The number of squashed insts skipped by commit
system.cpu1.commit.committedInsts           130066406                       # Number of instructions committed
system.cpu1.commit.committedOps             133868164                       # Number of ops (including micro ops) committed
system.cpu1.commit.committed_per_cycle::samples    713812557                       # Number of insts commited each cycle
system.cpu1.commit.committed_per_cycle::mean     0.187539                       # Number of insts commited each cycle
system.cpu1.commit.committed_per_cycle::stdev     0.864390                       # Number of insts commited each cycle
system.cpu1.commit.committed_per_cycle::underflows            0      0.00%      0.00% # Number of insts commited each cycle
system.cpu1.commit.committed_per_cycle::0    659798514     92.43%     92.43% # Number of insts commited each cycle
system.cpu1.commit.committed_per_cycle::1     26474518      3.70%     96.14% # Number of insts commited each cycle
system.cpu1.commit.committed_per_cycle::2      8197833      1.14%     97.29% # Number of insts commited each cycle
system.cpu1.commit.committed_per_cycle::3      8767478      1.22%     98.51% # Number of insts commited each cycle
system.cpu1.commit.committed_per_cycle::4      2488287      0.34%     98.86% # Number of insts commited each cycle
system.cpu1.commit.committed_per_cycle::5       824526      0.11%     98.98% # Number of insts commited each cycle
system.cpu1.commit.committed_per_cycle::6      3594373      0.50%     99.48% # Number of insts commited each cycle
system.cpu1.commit.committed_per_cycle::7       282694      0.03%     99.52% # Number of insts commited each cycle
system.cpu1.commit.committed_per_cycle::8      3384334      0.47%     99.99% # Number of insts commited each cycle
system.cpu1.commit.committed_per_cycle::overflows            0      0.00%     99.99% # Number of insts commited each cycle
system.cpu1.commit.committed_per_cycle::min_value            0                       # Number of insts commited each cycle
system.cpu1.commit.committed_per_cycle::max_value            8                       # Number of insts commited each cycle
system.cpu1.commit.committed_per_cycle::total    713812557                       # Number of insts commited each cycle
system.cpu1.commit.fp_insts                        12                       # Number of committed floating point instructions.
system.cpu1.commit.function_calls             1457115                       # Number of function calls committed.
system.cpu1.commit.int_insts                125272386                       # Number of committed integer instructions.
system.cpu1.commit.loads                     36890023                       # Number of loads committed
system.cpu1.commit.membars                    7603278                       # Number of memory barriers committed
system.cpu1.commit.op_class_0::No_OpClass      7603278      5.67%      5.67% # Class of committed instruction
system.cpu1.commit.op_class_0::IntAlu        77450807     57.85%     63.53% # Class of committed instruction
system.cpu1.commit.op_class_0::IntMult             44      0.00%     63.53% # Class of committed instruction
system.cpu1.commit.op_class_0::IntDiv              88      0.00%     63.53% # Class of committed instruction
system.cpu1.commit.op_class_0::FloatAdd             0      0.00%     63.53% # Class of committed instruction
system.cpu1.commit.op_class_0::FloatCmp             0      0.00%     63.53% # Class of committed instruction
system.cpu1.commit.op_class_0::FloatCvt             0      0.00%     63.53% # Class of committed instruction
system.cpu1.commit.op_class_0::FloatMult            0      0.00%     63.53% # Class of committed instruction
system.cpu1.commit.op_class_0::FloatMultAcc            0      0.00%     63.53% # Class of committed instruction
system.cpu1.commit.op_class_0::FloatDiv             0      0.00%     63.53% # Class of committed instruction
system.cpu1.commit.op_class_0::FloatMisc            0      0.00%     63.53% # Class of committed instruction
system.cpu1.commit.op_class_0::FloatSqrt            0      0.00%     63.53% # Class of committed instruction
system.cpu1.commit.op_class_0::SimdAdd              0      0.00%     63.53% # Class of committed instruction
system.cpu1.commit.op_class_0::SimdAddAcc            0      0.00%     63.53% # Class of committed instruction
system.cpu1.commit.op_class_0::SimdAlu              0      0.00%     63.53% # Class of committed instruction
system.cpu1.commit.op_class_0::SimdCmp              0      0.00%     63.53% # Class of committed instruction
system.cpu1.commit.op_class_0::SimdCvt              0      0.00%     63.53% # Class of committed instruction
system.cpu1.commit.op_class_0::SimdMisc             0      0.00%     63.53% # Class of committed instruction
system.cpu1.commit.op_class_0::SimdMult             0      0.00%     63.53% # Class of committed instruction
system.cpu1.commit.op_class_0::SimdMultAcc            0      0.00%     63.53% # Class of committed instruction
system.cpu1.commit.op_class_0::SimdShift            0      0.00%     63.53% # Class of committed instruction
system.cpu1.commit.op_class_0::SimdShiftAcc            0      0.00%     63.53% # Class of committed instruction
system.cpu1.commit.op_class_0::SimdDiv              0      0.00%     63.53% # Class of committed instruction
system.cpu1.commit.op_class_0::SimdSqrt             0      0.00%     63.53% # Class of committed instruction
system.cpu1.commit.op_class_0::SimdFloatAdd            0      0.00%     63.53% # Class of committed instruction
system.cpu1.commit.op_class_0::SimdFloatAlu            0      0.00%     63.53% # Class of committed instruction
system.cpu1.commit.op_class_0::SimdFloatCmp            0      0.00%     63.53% # Class of committed instruction
system.cpu1.commit.op_class_0::SimdFloatCvt            0      0.00%     63.53% # Class of committed instruction
system.cpu1.commit.op_class_0::SimdFloatDiv            0      0.00%     63.53% # Class of committed instruction
system.cpu1.commit.op_class_0::SimdFloatMisc            0      0.00%     63.53% # Class of committed instruction
system.cpu1.commit.op_class_0::SimdFloatMult            0      0.00%     63.53% # Class of committed instruction
system.cpu1.commit.op_class_0::SimdFloatMultAcc            0      0.00%     63.53% # Class of committed instruction
system.cpu1.commit.op_class_0::SimdFloatSqrt            0      0.00%     63.53% # Class of committed instruction
system.cpu1.commit.op_class_0::SimdReduceAdd            0      0.00%     63.53% # Class of committed instruction
system.cpu1.commit.op_class_0::SimdReduceAlu            0      0.00%     63.53% # Class of committed instruction
system.cpu1.commit.op_class_0::SimdReduceCmp            0      0.00%     63.53% # Class of committed instruction
system.cpu1.commit.op_class_0::SimdFloatReduceAdd            0      0.00%     63.53% # Class of committed instruction
system.cpu1.commit.op_class_0::SimdFloatReduceCmp            0      0.00%     63.53% # Class of committed instruction
system.cpu1.commit.op_class_0::SimdAes              0      0.00%     63.53% # Class of committed instruction
system.cpu1.commit.op_class_0::SimdAesMix            0      0.00%     63.53% # Class of committed instruction
system.cpu1.commit.op_class_0::SimdSha1Hash            0      0.00%     63.53% # Class of committed instruction
system.cpu1.commit.op_class_0::SimdSha1Hash2            0      0.00%     63.53% # Class of committed instruction
system.cpu1.commit.op_class_0::SimdSha256Hash            0      0.00%     63.53% # Class of committed instruction
system.cpu1.commit.op_class_0::SimdSha256Hash2            0      0.00%     63.53% # Class of committed instruction
system.cpu1.commit.op_class_0::SimdShaSigma2            0      0.00%     63.53% # Class of committed instruction
system.cpu1.commit.op_class_0::SimdShaSigma3            0      0.00%     63.53% # Class of committed instruction
system.cpu1.commit.op_class_0::SimdPredAlu            0      0.00%     63.53% # Class of committed instruction
system.cpu1.commit.op_class_0::MemRead       40691596     30.39%     93.93% # Class of committed instruction
system.cpu1.commit.op_class_0::MemWrite       8122339      6.06%     99.99% # Class of committed instruction
system.cpu1.commit.op_class_0::FloatMemRead            0      0.00%     99.99% # Class of committed instruction
system.cpu1.commit.op_class_0::FloatMemWrite           12      0.00%     99.99% # Class of committed instruction
system.cpu1.commit.op_class_0::IprAccess            0      0.00%     99.99% # Class of committed instruction
system.cpu1.commit.op_class_0::InstPrefetch            0      0.00%     99.99% # Class of committed instruction
system.cpu1.commit.op_class_0::total        133868164                       # Class of committed instruction
system.cpu1.commit.refs                      48813947                       # Number of memory references committed
system.cpu1.commit.swp_count                        0                       # Number of s/w prefetches committed
system.cpu1.commit.vec_insts                        0                       # Number of committed Vector instructions.
system.cpu1.committedInsts                  130066406                       # Number of Instructions Simulated
system.cpu1.committedOps                    133868164                       # Number of Ops (including micro ops) Simulated
system.cpu1.cpi                              5.521813                       # CPI: Cycles Per Instruction
system.cpu1.cpi_total                        5.521813                       # CPI: Total CPI of All Threads
system.cpu1.decode.BlockedCycles            636696199                       # Number of cycles decode is blocked
system.cpu1.decode.BranchMispred               420338                       # Number of times decode detected a branch misprediction
system.cpu1.decode.BranchResolved            17285105                       # Number of times decode resolved a branch
system.cpu1.decode.DecodedInsts             154751229                       # Number of instructions handled by decode
system.cpu1.decode.IdleCycles                19130143                       # Number of cycles decode is idle
system.cpu1.decode.RunCycles                 50683817                       # Number of cycles decode is running
system.cpu1.decode.SquashCycles               1385236                       # Number of cycles decode is squashing
system.cpu1.decode.SquashedInsts              1082279                       # Number of squashed instructions handled by decode
system.cpu1.decode.UnblockCycles              8753220                       # Number of cycles decode is unblocking
system.cpu1.dtb.accesses                            0                       # DTB accesses
system.cpu1.dtb.hits                                0                       # DTB hits
system.cpu1.dtb.misses                              0                       # DTB misses
system.cpu1.dtb.read_accesses                       0                       # DTB read accesses
system.cpu1.dtb.read_hits                           0                       # DTB read hits
system.cpu1.dtb.read_misses                         0                       # DTB read misses
system.cpu1.dtb.write_accesses                      0                       # DTB write accesses
system.cpu1.dtb.write_hits                          0                       # DTB write hits
system.cpu1.dtb.write_misses                        0                       # DTB write misses
system.cpu1.fetch.Branches                   35913983                       # Number of branches that fetch encountered
system.cpu1.fetch.CacheLines                 19347741                       # Number of cache lines fetched
system.cpu1.fetch.Cycles                    693940429                       # Number of cycles fetch has run and was not squashing or blocked
system.cpu1.fetch.IcacheSquashes               212150                       # Number of outstanding Icache misses that were squashed
system.cpu1.fetch.Insts                     156285282                       # Number of instructions fetch has processed
system.cpu1.fetch.MiscStallCycles                   1                       # Number of cycles fetch has spent waiting on interrupts, or bad addresses, or out of MSHRs
system.cpu1.fetch.SquashCycles                3580302                       # Number of cycles fetch has spent squashing
system.cpu1.fetch.branchRate                 0.050005                       # Number of branch fetches per cycle
system.cpu1.fetch.icacheStallCycles          20918034                       # Number of cycles fetch is stalled on an Icache miss
system.cpu1.fetch.predictedBranches          18996618                       # Number of branches that fetch has predicted taken
system.cpu1.fetch.rate                       0.217606                       # Number of inst fetches per cycle
system.cpu1.fetch.rateDist::samples         716648615                       # Number of instructions fetched each cycle (Total)
system.cpu1.fetch.rateDist::mean             0.223383                       # Number of instructions fetched each cycle (Total)
system.cpu1.fetch.rateDist::stdev            0.672612                       # Number of instructions fetched each cycle (Total)
system.cpu1.fetch.rateDist::underflows              0      0.00%      0.00% # Number of instructions fetched each cycle (Total)
system.cpu1.fetch.rateDist::0               620924947     86.64%     86.64% # Number of instructions fetched each cycle (Total)
system.cpu1.fetch.rateDist::1                55431415      7.73%     94.37% # Number of instructions fetched each cycle (Total)
system.cpu1.fetch.rateDist::2                24325658      3.39%     97.77% # Number of instructions fetched each cycle (Total)
system.cpu1.fetch.rateDist::3                10412311      1.45%     99.22% # Number of instructions fetched each cycle (Total)
system.cpu1.fetch.rateDist::4                 3857544      0.53%     99.76% # Number of instructions fetched each cycle (Total)
system.cpu1.fetch.rateDist::5                  843332      0.11%     99.88% # Number of instructions fetched each cycle (Total)
system.cpu1.fetch.rateDist::6                  853087      0.11%     99.99% # Number of instructions fetched each cycle (Total)
system.cpu1.fetch.rateDist::7                     165      0.00%     99.99% # Number of instructions fetched each cycle (Total)
system.cpu1.fetch.rateDist::8                     156      0.00%     99.99% # Number of instructions fetched each cycle (Total)
system.cpu1.fetch.rateDist::overflows               0      0.00%     99.99% # Number of instructions fetched each cycle (Total)
system.cpu1.fetch.rateDist::min_value               0                       # Number of instructions fetched each cycle (Total)
system.cpu1.fetch.rateDist::max_value               8                       # Number of instructions fetched each cycle (Total)
system.cpu1.fetch.rateDist::total           716648615                       # Number of instructions fetched each cycle (Total)
system.cpu1.fp_regfile_reads                       12                       # number of floating regfile reads
system.cpu1.idleCycles                        1553840                       # Total number of cycles that the CPU has spent unscheduled due to idling
system.cpu1.iew.branchMispredicts             1510603                       # Number of branch mispredicts detected at execute
system.cpu1.iew.exec_branches                31643321                       # Number of branches executed
system.cpu1.iew.exec_nop                            0                       # number of nop insts executed
system.cpu1.iew.exec_rate                    0.201177                       # Inst execution rate
system.cpu1.iew.exec_refs                    52064231                       # number of memory reference insts executed
system.cpu1.iew.exec_stores                  12346027                       # Number of stores executed
system.cpu1.iew.exec_swp                            0                       # number of swp insts executed
system.cpu1.iew.iewBlockCycles              543468202                       # Number of cycles IEW is blocking
system.cpu1.iew.iewDispLoadInsts             40217360                       # Number of dispatched load instructions
system.cpu1.iew.iewDispNonSpecInsts           3802258                       # Number of dispatched non-speculative instructions
system.cpu1.iew.iewDispSquashedInsts          1267650                       # Number of squashed instructions skipped by dispatch
system.cpu1.iew.iewDispStoreInsts            12659217                       # Number of dispatched store instructions
system.cpu1.iew.iewDispatchedInsts          148914509                       # Number of instructions dispatched to IQ
system.cpu1.iew.iewExecLoadInsts             39718204                       # Number of load instructions executed
system.cpu1.iew.iewExecSquashedInsts          1420256                       # Number of squashed instructions skipped in execute
system.cpu1.iew.iewExecutedInsts            144486528                       # Number of executed instructions
system.cpu1.iew.iewIQFullEvents               3954278                       # Number of times the IQ has become full, causing a stall
system.cpu1.iew.iewIdleCycles                       0                       # Number of cycles IEW is idle
system.cpu1.iew.iewLSQFullEvents              5966049                       # Number of times the LSQ has become full, causing a stall
system.cpu1.iew.iewSquashCycles               1385236                       # Number of cycles IEW is squashing
system.cpu1.iew.iewUnblockCycles             13902734                       # Number of cycles IEW is unblocking
system.cpu1.iew.lsq.thread0.blockedLoads            0                       # Number of blocked loads due to partial load-store forwarding
system.cpu1.iew.lsq.thread0.cacheBlocked        60424                       # Number of times an access to memory failed due to the cache being blocked
system.cpu1.iew.lsq.thread0.forwLoads         1131056                       # Number of loads that had data forwarded from stores
system.cpu1.iew.lsq.thread0.ignoredResponses        32347                       # Number of memory responses ignored because the instruction is squashed
system.cpu1.iew.lsq.thread0.invAddrLoads            0                       # Number of loads ignored due to an invalid address
system.cpu1.iew.lsq.thread0.invAddrSwpfs            0                       # Number of software prefetches ignored due to an invalid address
system.cpu1.iew.lsq.thread0.memOrderViolation         2179                       # Number of memory ordering violations
system.cpu1.iew.lsq.thread0.rescheduledLoads         4738                       # Number of loads that were rescheduled
system.cpu1.iew.lsq.thread0.squashedLoads      3327337                       # Number of loads squashed
system.cpu1.iew.lsq.thread0.squashedStores       735293                       # Number of stores squashed
system.cpu1.iew.memOrderViolationEvents          2179                       # Number of memory order violations
system.cpu1.iew.predictedNotTakenIncorrect       517654                       # Number of branches that were predicted not taken incorrectly
system.cpu1.iew.predictedTakenIncorrect        992949                       # Number of branches that were predicted taken incorrectly
system.cpu1.iew.wb_consumers                 84766942                       # num instructions consuming a value
system.cpu1.iew.wb_count                    143484089                       # cumulative count of insts written-back
system.cpu1.iew.wb_fanout                    0.849456                       # average fanout of values written-back
system.cpu1.iew.wb_producers                 72005801                       # num instructions producing a value
system.cpu1.iew.wb_rate                      0.199782                       # insts written-back per cycle
system.cpu1.iew.wb_sent                     143534118                       # cumulative count of insts sent to commit
system.cpu1.int_regfile_reads               179692220                       # number of integer regfile reads
system.cpu1.int_regfile_writes               96519037                       # number of integer regfile writes
system.cpu1.ipc                              0.181099                       # IPC: Instructions Per Cycle
system.cpu1.ipc_total                        0.181099                       # IPC: Total IPC of All Threads
system.cpu1.iq.FU_type_0::No_OpClass          7603387      5.21%      5.21% # Type of FU issued
system.cpu1.iq.FU_type_0::IntAlu             85815650     58.81%     64.02% # Type of FU issued
system.cpu1.iq.FU_type_0::IntMult                  47      0.00%     64.02% # Type of FU issued
system.cpu1.iq.FU_type_0::IntDiv                   90      0.00%     64.02% # Type of FU issued
system.cpu1.iq.FU_type_0::FloatAdd                  0      0.00%     64.02% # Type of FU issued
system.cpu1.iq.FU_type_0::FloatCmp                  0      0.00%     64.02% # Type of FU issued
system.cpu1.iq.FU_type_0::FloatCvt                  0      0.00%     64.02% # Type of FU issued
system.cpu1.iq.FU_type_0::FloatMult                 0      0.00%     64.02% # Type of FU issued
system.cpu1.iq.FU_type_0::FloatMultAcc              0      0.00%     64.02% # Type of FU issued
system.cpu1.iq.FU_type_0::FloatDiv                  0      0.00%     64.02% # Type of FU issued
system.cpu1.iq.FU_type_0::FloatMisc                 0      0.00%     64.02% # Type of FU issued
system.cpu1.iq.FU_type_0::FloatSqrt                 0      0.00%     64.02% # Type of FU issued
system.cpu1.iq.FU_type_0::SimdAdd                   0      0.00%     64.02% # Type of FU issued
system.cpu1.iq.FU_type_0::SimdAddAcc                0      0.00%     64.02% # Type of FU issued
system.cpu1.iq.FU_type_0::SimdAlu                   0      0.00%     64.02% # Type of FU issued
system.cpu1.iq.FU_type_0::SimdCmp                   0      0.00%     64.02% # Type of FU issued
system.cpu1.iq.FU_type_0::SimdCvt                   0      0.00%     64.02% # Type of FU issued
system.cpu1.iq.FU_type_0::SimdMisc                  0      0.00%     64.02% # Type of FU issued
system.cpu1.iq.FU_type_0::SimdMult                  0      0.00%     64.02% # Type of FU issued
system.cpu1.iq.FU_type_0::SimdMultAcc               0      0.00%     64.02% # Type of FU issued
system.cpu1.iq.FU_type_0::SimdShift                 0      0.00%     64.02% # Type of FU issued
system.cpu1.iq.FU_type_0::SimdShiftAcc              0      0.00%     64.02% # Type of FU issued
system.cpu1.iq.FU_type_0::SimdDiv                   0      0.00%     64.02% # Type of FU issued
system.cpu1.iq.FU_type_0::SimdSqrt                  0      0.00%     64.02% # Type of FU issued
system.cpu1.iq.FU_type_0::SimdFloatAdd              0      0.00%     64.02% # Type of FU issued
system.cpu1.iq.FU_type_0::SimdFloatAlu              0      0.00%     64.02% # Type of FU issued
system.cpu1.iq.FU_type_0::SimdFloatCmp              0      0.00%     64.02% # Type of FU issued
system.cpu1.iq.FU_type_0::SimdFloatCvt              0      0.00%     64.02% # Type of FU issued
system.cpu1.iq.FU_type_0::SimdFloatDiv              0      0.00%     64.02% # Type of FU issued
system.cpu1.iq.FU_type_0::SimdFloatMisc             0      0.00%     64.02% # Type of FU issued
system.cpu1.iq.FU_type_0::SimdFloatMult             0      0.00%     64.02% # Type of FU issued
system.cpu1.iq.FU_type_0::SimdFloatMultAcc            0      0.00%     64.02% # Type of FU issued
system.cpu1.iq.FU_type_0::SimdFloatSqrt             0      0.00%     64.02% # Type of FU issued
system.cpu1.iq.FU_type_0::SimdReduceAdd             0      0.00%     64.02% # Type of FU issued
system.cpu1.iq.FU_type_0::SimdReduceAlu             0      0.00%     64.02% # Type of FU issued
system.cpu1.iq.FU_type_0::SimdReduceCmp             0      0.00%     64.02% # Type of FU issued
system.cpu1.iq.FU_type_0::SimdFloatReduceAdd            0      0.00%     64.02% # Type of FU issued
system.cpu1.iq.FU_type_0::SimdFloatReduceCmp            0      0.00%     64.02% # Type of FU issued
system.cpu1.iq.FU_type_0::SimdAes                   0      0.00%     64.02% # Type of FU issued
system.cpu1.iq.FU_type_0::SimdAesMix                0      0.00%     64.02% # Type of FU issued
system.cpu1.iq.FU_type_0::SimdSha1Hash              0      0.00%     64.02% # Type of FU issued
system.cpu1.iq.FU_type_0::SimdSha1Hash2             0      0.00%     64.02% # Type of FU issued
system.cpu1.iq.FU_type_0::SimdSha256Hash            0      0.00%     64.02% # Type of FU issued
system.cpu1.iq.FU_type_0::SimdSha256Hash2            0      0.00%     64.02% # Type of FU issued
system.cpu1.iq.FU_type_0::SimdShaSigma2             0      0.00%     64.02% # Type of FU issued
system.cpu1.iq.FU_type_0::SimdShaSigma3             0      0.00%     64.02% # Type of FU issued
system.cpu1.iq.FU_type_0::SimdPredAlu               0      0.00%     64.02% # Type of FU issued
system.cpu1.iq.FU_type_0::MemRead            43896251     30.08%     94.11% # Type of FU issued
system.cpu1.iq.FU_type_0::MemWrite            8591347      5.88%     99.99% # Type of FU issued
system.cpu1.iq.FU_type_0::FloatMemRead              0      0.00%     99.99% # Type of FU issued
system.cpu1.iq.FU_type_0::FloatMemWrite            12      0.00%     99.99% # Type of FU issued
system.cpu1.iq.FU_type_0::IprAccess                 0      0.00%     99.99% # Type of FU issued
system.cpu1.iq.FU_type_0::InstPrefetch              0      0.00%     99.99% # Type of FU issued
system.cpu1.iq.FU_type_0::total             145906784                       # Type of FU issued
system.cpu1.iq.fp_alu_accesses                     15                       # Number of floating point alu accesses
system.cpu1.iq.fp_inst_queue_reads                 27                       # Number of floating instruction queue reads
system.cpu1.iq.fp_inst_queue_wakeup_accesses           12                       # Number of floating instruction queue wakeup accesses
system.cpu1.iq.fp_inst_queue_writes                12                       # Number of floating instruction queue writes
system.cpu1.iq.fu_busy_cnt                    4196872                       # FU busy when requested
system.cpu1.iq.fu_busy_rate                  0.028764                       # FU busy rate (busy events/executed inst)
system.cpu1.iq.fu_full::No_OpClass                  0      0.00%      0.00% # attempts to use FU when none available
system.cpu1.iq.fu_full::IntAlu                 768251     18.30%     18.30% # attempts to use FU when none available
system.cpu1.iq.fu_full::IntMult                     0      0.00%     18.30% # attempts to use FU when none available
system.cpu1.iq.fu_full::IntDiv                      0      0.00%     18.30% # attempts to use FU when none available
system.cpu1.iq.fu_full::FloatAdd                    0      0.00%     18.30% # attempts to use FU when none available
system.cpu1.iq.fu_full::FloatCmp                    0      0.00%     18.30% # attempts to use FU when none available
system.cpu1.iq.fu_full::FloatCvt                    0      0.00%     18.30% # attempts to use FU when none available
system.cpu1.iq.fu_full::FloatMult                   0      0.00%     18.30% # attempts to use FU when none available
system.cpu1.iq.fu_full::FloatMultAcc                0      0.00%     18.30% # attempts to use FU when none available
system.cpu1.iq.fu_full::FloatDiv                    0      0.00%     18.30% # attempts to use FU when none available
system.cpu1.iq.fu_full::FloatMisc                   0      0.00%     18.30% # attempts to use FU when none available
system.cpu1.iq.fu_full::FloatSqrt                   0      0.00%     18.30% # attempts to use FU when none available
system.cpu1.iq.fu_full::SimdAdd                     0      0.00%     18.30% # attempts to use FU when none available
system.cpu1.iq.fu_full::SimdAddAcc                  0      0.00%     18.30% # attempts to use FU when none available
system.cpu1.iq.fu_full::SimdAlu                     0      0.00%     18.30% # attempts to use FU when none available
system.cpu1.iq.fu_full::SimdCmp                     0      0.00%     18.30% # attempts to use FU when none available
system.cpu1.iq.fu_full::SimdCvt                     0      0.00%     18.30% # attempts to use FU when none available
system.cpu1.iq.fu_full::SimdMisc                    0      0.00%     18.30% # attempts to use FU when none available
system.cpu1.iq.fu_full::SimdMult                    0      0.00%     18.30% # attempts to use FU when none available
system.cpu1.iq.fu_full::SimdMultAcc                 0      0.00%     18.30% # attempts to use FU when none available
system.cpu1.iq.fu_full::SimdShift                   0      0.00%     18.30% # attempts to use FU when none available
system.cpu1.iq.fu_full::SimdShiftAcc                0      0.00%     18.30% # attempts to use FU when none available
system.cpu1.iq.fu_full::SimdDiv                     0      0.00%     18.30% # attempts to use FU when none available
system.cpu1.iq.fu_full::SimdSqrt                    0      0.00%     18.30% # attempts to use FU when none available
system.cpu1.iq.fu_full::SimdFloatAdd                0      0.00%     18.30% # attempts to use FU when none available
system.cpu1.iq.fu_full::SimdFloatAlu                0      0.00%     18.30% # attempts to use FU when none available
system.cpu1.iq.fu_full::SimdFloatCmp                0      0.00%     18.30% # attempts to use FU when none available
system.cpu1.iq.fu_full::SimdFloatCvt                0      0.00%     18.30% # attempts to use FU when none available
system.cpu1.iq.fu_full::SimdFloatDiv                0      0.00%     18.30% # attempts to use FU when none available
system.cpu1.iq.fu_full::SimdFloatMisc               0      0.00%     18.30% # attempts to use FU when none available
system.cpu1.iq.fu_full::SimdFloatMult               0      0.00%     18.30% # attempts to use FU when none available
system.cpu1.iq.fu_full::SimdFloatMultAcc            0      0.00%     18.30% # attempts to use FU when none available
system.cpu1.iq.fu_full::SimdFloatSqrt               0      0.00%     18.30% # attempts to use FU when none available
system.cpu1.iq.fu_full::SimdReduceAdd               0      0.00%     18.30% # attempts to use FU when none available
system.cpu1.iq.fu_full::SimdReduceAlu               0      0.00%     18.30% # attempts to use FU when none available
system.cpu1.iq.fu_full::SimdReduceCmp               0      0.00%     18.30% # attempts to use FU when none available
system.cpu1.iq.fu_full::SimdFloatReduceAdd            0      0.00%     18.30% # attempts to use FU when none available
system.cpu1.iq.fu_full::SimdFloatReduceCmp            0      0.00%     18.30% # attempts to use FU when none available
system.cpu1.iq.fu_full::SimdAes                     0      0.00%     18.30% # attempts to use FU when none available
system.cpu1.iq.fu_full::SimdAesMix                  0      0.00%     18.30% # attempts to use FU when none available
system.cpu1.iq.fu_full::SimdSha1Hash                0      0.00%     18.30% # attempts to use FU when none available
system.cpu1.iq.fu_full::SimdSha1Hash2               0      0.00%     18.30% # attempts to use FU when none available
system.cpu1.iq.fu_full::SimdSha256Hash              0      0.00%     18.30% # attempts to use FU when none available
system.cpu1.iq.fu_full::SimdSha256Hash2             0      0.00%     18.30% # attempts to use FU when none available
system.cpu1.iq.fu_full::SimdShaSigma2               0      0.00%     18.30% # attempts to use FU when none available
system.cpu1.iq.fu_full::SimdShaSigma3               0      0.00%     18.30% # attempts to use FU when none available
system.cpu1.iq.fu_full::SimdPredAlu                 0      0.00%     18.30% # attempts to use FU when none available
system.cpu1.iq.fu_full::MemRead               3075390     73.27%     91.58% # attempts to use FU when none available
system.cpu1.iq.fu_full::MemWrite               353228      8.41%     99.99% # attempts to use FU when none available
[...]
system.cpu1.dcache.ReadReq_avg_miss_latency::total 86959.111474                       # average ReadReq miss latency
system.cpu1.dcache.ReadReq_mshr_hits::.cpu1.data    236177193                       # number of ReadReq MSHR hits
system.cpu1.dcache.ReadReq_mshr_hits::total    236177193                       # number of ReadReq MSHR hits
system.cpu1.dcache.ReadReq_mshr_misses::.cpu1.data    243025624                       # number of ReadReq MSHR misses
system.cpu1.dcache.ReadReq_mshr_misses::total    243025624                       # number of ReadReq MSHR misses
system.cpu1.dcache.ReadReq_mshr_miss_latency::.cpu1.data 24037473946000                       # number of ReadReq MSHR miss cycles
system.cpu1.dcache.ReadReq_mshr_miss_latency::total 24037473946000                       # number of ReadReq MSHR miss cycles
system.cpu1.dcache.ReadReq_mshr_miss_rate::.cpu1.data     0.271184                       # mshr miss rate for ReadReq accesses
system.cpu1.dcache.ReadReq_mshr_miss_rate::total     0.271184                       # mshr miss rate for ReadReq accesses
system.cpu1.dcache.ReadReq_avg_mshr_miss_latency::.cpu1.data 98909.216034                       # average ReadReq mshr miss latency
system.cpu1.dcache.ReadReq_avg_mshr_miss_latency::total 98909.216034                       # average ReadReq mshr miss latency
system.cpu1.dcache.WriteReq_hits::.cpu1.data     41675952                       # number of WriteReq hits
system.cpu1.dcache.WriteReq_hits::total      41675952                       # number of WriteReq hits
system.cpu1.dcache.WriteReq_misses::.cpu1.data     23735954                       # number of WriteReq misses
system.cpu1.dcache.WriteReq_misses::total     23735954                       # number of WriteReq misses
system.cpu1.dcache.WriteReq_miss_latency::.cpu1.data 1970069304984                       # number of WriteReq miss cycles
system.cpu1.dcache.WriteReq_miss_latency::total 1970069304984                       # number of WriteReq miss cycles
system.cpu1.dcache.WriteReq_accesses::.cpu1.data     65411906                       # number of WriteReq accesses(hits+misses)
system.cpu1.dcache.WriteReq_accesses::total     65411906                       # number of WriteReq accesses(hits+misses)
system.cpu1.dcache.WriteReq_miss_rate::.cpu1.data     0.362869                       # miss rate for WriteReq accesses
system.cpu1.dcache.WriteReq_miss_rate::total     0.362869                       # miss rate for WriteReq accesses
system.cpu1.dcache.WriteReq_avg_miss_latency::.cpu1.data 82999.373229                       # average WriteReq miss latency
system.cpu1.dcache.WriteReq_avg_miss_latency::total 82999.373229                       # average WriteReq miss latency
system.cpu1.dcache.WriteReq_mshr_hits::.cpu1.data     19568414                       # number of WriteReq MSHR hits
system.cpu1.dcache.WriteReq_mshr_hits::total     19568414                       # number of WriteReq MSHR hits
system.cpu1.dcache.WriteReq_mshr_misses::.cpu1.data      4167540                       # number of WriteReq MSHR misses
system.cpu1.dcache.WriteReq_mshr_misses::total      4167540                       # number of WriteReq MSHR misses
system.cpu1.dcache.WriteReq_mshr_miss_latency::.cpu1.data 307354952060                       # number of WriteReq MSHR miss cycles
system.cpu1.dcache.WriteReq_mshr_miss_latency::total 307354952060                       # number of WriteReq MSHR miss cycles
system.cpu1.dcache.WriteReq_mshr_miss_rate::.cpu1.data     0.063712                       # mshr miss rate for WriteReq accesses
system.cpu1.dcache.WriteReq_mshr_miss_rate::total     0.063712                       # mshr miss rate for WriteReq accesses
system.cpu1.dcache.WriteReq_avg_mshr_miss_latency::.cpu1.data 73749.730551                       # average WriteReq mshr miss latency
system.cpu1.dcache.WriteReq_avg_mshr_miss_latency::total 73749.730551                       # average WriteReq mshr miss latency
system.cpu1.dcache.LoadLockedReq_hits::.cpu1.data         6661                       # number of LoadLockedReq hits
system.cpu1.dcache.LoadLockedReq_hits::total         6661                       # number of LoadLockedReq hits
system.cpu1.dcache.LoadLockedReq_misses::.cpu1.data         1513                       # number of LoadLockedReq misses
system.cpu1.dcache.LoadLockedReq_misses::total         1513                       # number of LoadLockedReq misses
system.cpu1.dcache.LoadLockedReq_miss_latency::.cpu1.data     52823500                       # number of LoadLockedReq miss cycles
system.cpu1.dcache.LoadLockedReq_miss_latency::total     52823500                       # number of LoadLockedReq miss cycles
system.cpu1.dcache.LoadLockedReq_accesses::.cpu1.data         8174                       # number of LoadLockedReq accesses(hits+misses)
system.cpu1.dcache.LoadLockedReq_accesses::total         8174                       # number of LoadLockedReq accesses(hits+misses)
system.cpu1.dcache.LoadLockedReq_miss_rate::.cpu1.data     0.185099                       # miss rate for LoadLockedReq accesses
system.cpu1.dcache.LoadLockedReq_miss_rate::total     0.185099                       # miss rate for LoadLockedReq accesses
system.cpu1.dcache.LoadLockedReq_avg_miss_latency::.cpu1.data 34913.086583                       # average LoadLockedReq miss latency
system.cpu1.dcache.LoadLockedReq_avg_miss_latency::total 34913.086583                       # average LoadLockedReq miss latency
system.cpu1.dcache.LoadLockedReq_mshr_hits::.cpu1.data         1225                       # number of LoadLockedReq MSHR hits
system.cpu1.dcache.LoadLockedReq_mshr_hits::total         1225                       # number of LoadLockedReq MSHR hits
system.cpu1.dcache.LoadLockedReq_mshr_misses::.cpu1.data          288                       # number of LoadLockedReq MSHR misses
system.cpu1.dcache.LoadLockedReq_mshr_misses::total          288                       # number of LoadLockedReq MSHR misses
system.cpu1.dcache.LoadLockedReq_mshr_miss_latency::.cpu1.data      4144000                       # number of LoadLockedReq MSHR miss cycles
system.cpu1.dcache.LoadLockedReq_mshr_miss_latency::total      4144000                       # number of LoadLockedReq MSHR miss cycles
system.cpu1.dcache.LoadLockedReq_mshr_miss_rate::.cpu1.data     0.035234                       # mshr miss rate for LoadLockedReq accesses
system.cpu1.dcache.LoadLockedReq_mshr_miss_rate::total     0.035234                       # mshr miss rate for LoadLockedReq accesses
system.cpu1.dcache.LoadLockedReq_avg_mshr_miss_latency::.cpu1.data 14388.888889                       # average LoadLockedReq mshr miss latency
system.cpu1.dcache.LoadLockedReq_avg_mshr_miss_latency::total 14388.888889                       # average LoadLockedReq mshr miss latency
system.cpu1.dcache.StoreCondReq_hits::.cpu1.data         4071                       # number of StoreCondReq hits
system.cpu1.dcache.StoreCondReq_hits::total         4071                       # number of StoreCondReq hits
system.cpu1.dcache.StoreCondReq_misses::.cpu1.data         3183                       # number of StoreCondReq misses
system.cpu1.dcache.StoreCondReq_misses::total         3183                       # number of StoreCondReq misses
system.cpu1.dcache.StoreCondReq_miss_latency::.cpu1.data     16216500                       # number of StoreCondReq miss cycles
system.cpu1.dcache.StoreCondReq_miss_latency::total     16216500                       # number of StoreCondReq miss cycles
system.cpu1.dcache.StoreCondReq_accesses::.cpu1.data         7254                       # number of StoreCondReq accesses(hits+misses)
system.cpu1.dcache.StoreCondReq_accesses::total         7254                       # number of StoreCondReq accesses(hits+misses)
system.cpu1.dcache.StoreCondReq_miss_rate::.cpu1.data     0.438792                       # miss rate for StoreCondReq accesses
system.cpu1.dcache.StoreCondReq_miss_rate::total     0.438792                       # miss rate for StoreCondReq accesses
system.cpu1.dcache.StoreCondReq_avg_miss_latency::.cpu1.data  5094.721960                       # average StoreCondReq miss latency
system.cpu1.dcache.StoreCondReq_avg_miss_latency::total  5094.721960                       # average StoreCondReq miss latency
system.cpu1.dcache.StoreCondReq_mshr_misses::.cpu1.data         3182                       # number of StoreCondReq MSHR misses
system.cpu1.dcache.StoreCondReq_mshr_misses::total         3182                       # number of StoreCondReq MSHR misses
system.cpu1.dcache.StoreCondReq_mshr_miss_latency::.cpu1.data     13034500                       # number of StoreCondReq MSHR miss cycles
system.cpu1.dcache.StoreCondReq_mshr_miss_latency::total     13034500                       # number of StoreCondReq MSHR miss cycles
system.cpu1.dcache.StoreCondReq_mshr_miss_rate::.cpu1.data     0.438655                       # mshr miss rate for StoreCondReq accesses
system.cpu1.dcache.StoreCondReq_mshr_miss_rate::total     0.438655                       # mshr miss rate for StoreCondReq accesses
system.cpu1.dcache.StoreCondReq_avg_mshr_miss_latency::.cpu1.data  4096.323067                       # average StoreCondReq mshr miss latency
system.cpu1.dcache.StoreCondReq_avg_mshr_miss_latency::total  4096.323067                       # average StoreCondReq mshr miss latency
system.cpu1.dcache.SwapReq_hits::.cpu1.data         3634                       # number of SwapReq hits
system.cpu1.dcache.SwapReq_hits::total           3634                       # number of SwapReq hits
system.cpu1.dcache.SwapReq_misses::.cpu1.data       491402                       # number of SwapReq misses
system.cpu1.dcache.SwapReq_misses::total       491402                       # number of SwapReq misses
system.cpu1.dcache.SwapReq_miss_latency::.cpu1.data  14787434497                       # number of SwapReq miss cycles
system.cpu1.dcache.SwapReq_miss_latency::total  14787434497                       # number of SwapReq miss cycles
system.cpu1.dcache.SwapReq_accesses::.cpu1.data       495036                       # number of SwapReq accesses(hits+misses)
system.cpu1.dcache.SwapReq_accesses::total       495036                       # number of SwapReq accesses(hits+misses)
system.cpu1.dcache.SwapReq_miss_rate::.cpu1.data     0.992659                       # miss rate for SwapReq accesses
system.cpu1.dcache.SwapReq_miss_rate::total     0.992659                       # miss rate for SwapReq accesses
system.cpu1.dcache.SwapReq_avg_miss_latency::.cpu1.data 30092.336818                       # average SwapReq miss latency
system.cpu1.dcache.SwapReq_avg_miss_latency::total 30092.336818                       # average SwapReq miss latency
system.cpu1.dcache.SwapReq_mshr_misses::.cpu1.data       491402                       # number of SwapReq MSHR misses
system.cpu1.dcache.SwapReq_mshr_misses::total       491402                       # number of SwapReq MSHR misses
system.cpu1.dcache.SwapReq_mshr_miss_latency::.cpu1.data  14296032497                       # number of SwapReq MSHR miss cycles
system.cpu1.dcache.SwapReq_mshr_miss_latency::total  14296032497                       # number of SwapReq MSHR miss cycles
system.cpu1.dcache.SwapReq_mshr_miss_rate::.cpu1.data     0.992659                       # mshr miss rate for SwapReq accesses
system.cpu1.dcache.SwapReq_mshr_miss_rate::total     0.992659                       # mshr miss rate for SwapReq accesses
system.cpu1.dcache.SwapReq_avg_mshr_miss_latency::.cpu1.data 29092.336818                       # average SwapReq mshr miss latency
system.cpu1.dcache.SwapReq_avg_mshr_miss_latency::total 29092.336818                       # average SwapReq mshr miss latency
system.cpu1.dcache.tags.pwrStateResidencyTicks::UNDEFINED 7121059777500                       # Cumulative time (in ticks) in various power states
system.cpu1.dcache.tags.tagsinuse           31.975441                       # Cycle average of tags in use
system.cpu1.dcache.tags.total_refs          706490872                       # Total number of references to valid blocks.
system.cpu1.dcache.tags.sampled_refs        247438114                       # Sample count of references to valid blocks.
system.cpu1.dcache.tags.avg_refs             2.855223                       # Average number of references to valid blocks.
system.cpu1.dcache.tags.warmup_cycle                0                       # Cycle when the warmup percentage was hit.
system.cpu1.dcache.tags.occ_blocks::.cpu1.data    31.975441                       # Average occupied blocks per requestor
system.cpu1.dcache.tags.occ_percent::.cpu1.data     0.999233                       # Average percentage of cache occupancy
system.cpu1.dcache.tags.occ_percent::total     0.999233                       # Average percentage of cache occupancy
system.cpu1.dcache.tags.occ_task_id_blocks::1024           24                       # Occupied blocks per task id
system.cpu1.dcache.tags.age_task_id_blocks_1024::1           24                       # Occupied blocks per task id
system.cpu1.dcache.tags.occ_task_id_percent::1024     0.750000                       # Percentage of cache occupancy per task id
system.cpu1.dcache.tags.tag_accesses       2171611404                       # Number of tag accesses
system.cpu1.dcache.tags.data_accesses      2171611404                       # Number of data accesses
system.cpu_clk_domain.clock                       500                       # Clock period in ticks
system.tol2bus.pwrStateResidencyTicks::UNDEFINED 7121059777500                       # Cumulative time (in ticks) in various power states
system.tol2bus.trans_dist::ReadResp         487022767                       # Transaction distribution
system.tol2bus.trans_dist::WritebackDirty     29739217                       # Transaction distribution
system.tol2bus.trans_dist::WritebackClean    477770772                       # Transaction distribution
system.tol2bus.trans_dist::CleanEvict      1267877840                       # Transaction distribution
system.tol2bus.trans_dist::HardPFReq        727852197                       # Transaction distribution
system.tol2bus.trans_dist::HardPFResp             371                       # Transaction distribution
system.tol2bus.trans_dist::UpgradeReq          610742                       # Transaction distribution
system.tol2bus.trans_dist::SCUpgradeReq          5570                       # Transaction distribution
system.tol2bus.trans_dist::UpgradeResp         616312                       # Transaction distribution
system.tol2bus.trans_dist::SCUpgradeFailReq            1                       # Transaction distribution
system.tol2bus.trans_dist::UpgradeFailResp            1                       # Transaction distribution
system.tol2bus.trans_dist::ReadExReq          8872915                       # Transaction distribution
system.tol2bus.trans_dist::ReadExResp         8872915                       # Transaction distribution
system.tol2bus.trans_dist::ReadCleanReq        187447                       # Transaction distribution
system.tol2bus.trans_dist::ReadSharedReq    486835320                       # Transaction distribution
system.tol2bus.pkt_count_system.cpu0.icache.mem_side::system.l2.cpu_side       453885                       # Packet count per connected master and slave (bytes)
system.tol2bus.pkt_count_system.cpu0.dcache.mem_side::system.l2.cpu_side    744238102                       # Packet count per connected master and slave (bytes)
system.tol2bus.pkt_count_system.cpu1.icache.mem_side::system.l2.cpu_side       108456                       # Packet count per connected master and slave (bytes)
system.tol2bus.pkt_count_system.cpu1.dcache.mem_side::system.l2.cpu_side    741733381                       # Packet count per connected master and slave (bytes)
system.tol2bus.pkt_count::total            1486533824                       # Packet count per connected master and slave (bytes)
system.tol2bus.pkt_size_system.cpu0.icache.mem_side::system.l2.cpu_side     19365760                       # Cumulative packet size per connected master and slave (bytes)
system.tol2bus.pkt_size_system.cpu0.dcache.mem_side::system.l2.cpu_side  31715732480                       # Cumulative packet size per connected master and slave (bytes)
system.tol2bus.pkt_size_system.cpu1.icache.mem_side::system.l2.cpu_side      4627456                       # Cumulative packet size per connected master and slave (bytes)
system.tol2bus.pkt_size_system.cpu1.dcache.mem_side::system.l2.cpu_side  31608958976                       # Cumulative packet size per connected master and slave (bytes)
system.tol2bus.pkt_size::total            63348684672                       # Cumulative packet size per connected master and slave (bytes)
system.tol2bus.snoops                      2009730934                       # Total snoops (count)
system.tol2bus.snoopTraffic                 869325824                       # Total snoop traffic (bytes)
system.tol2bus.snoop_fanout::samples       2505317814                       # Request fanout histogram
system.tol2bus.snoop_fanout::mean            0.184132                       # Request fanout histogram
system.tol2bus.snoop_fanout::stdev           0.397994                       # Request fanout histogram
system.tol2bus.snoop_fanout::underflows             0      0.00%      0.00% # Request fanout histogram
system.tol2bus.snoop_fanout::0             2054244247     82.00%     82.00% # Request fanout histogram
system.tol2bus.snoop_fanout::1              440837225     17.60%     99.59% # Request fanout histogram
system.tol2bus.snoop_fanout::2               10236342      0.41%    100.00% # Request fanout histogram
system.tol2bus.snoop_fanout::3                      0      0.00%    100.00% # Request fanout histogram
system.tol2bus.snoop_fanout::4                      0      0.00%    100.00% # Request fanout histogram
system.tol2bus.snoop_fanout::5                      0      0.00%    100.00% # Request fanout histogram
system.tol2bus.snoop_fanout::6                      0      0.00%    100.00% # Request fanout histogram
system.tol2bus.snoop_fanout::7                      0      0.00%    100.00% # Request fanout histogram
system.tol2bus.snoop_fanout::8                      0      0.00%    100.00% # Request fanout histogram
system.tol2bus.snoop_fanout::overflows              0      0.00%    100.00% # Request fanout histogram
system.tol2bus.snoop_fanout::min_value              0                       # Request fanout histogram
system.tol2bus.snoop_fanout::max_value              2                       # Request fanout histogram
system.tol2bus.snoop_fanout::total         2505317814                       # Request fanout histogram
system.tol2bus.reqLayer0.occupancy       991514146658                       # Layer occupancy (ticks)
system.tol2bus.reqLayer0.utilization             13.9                       # Layer utilization (%)
system.tol2bus.respLayer1.occupancy      373104923213                       # Layer occupancy (ticks)
system.tol2bus.respLayer1.utilization             5.2                       # Layer utilization (%)
system.tol2bus.respLayer0.occupancy         227152577                       # Layer occupancy (ticks)
system.tol2bus.respLayer0.utilization             0.0                       # Layer utilization (%)
system.tol2bus.respLayer3.occupancy      371857685082                       # Layer occupancy (ticks)
system.tol2bus.respLayer3.utilization             5.2                       # Layer utilization (%)
system.tol2bus.respLayer2.occupancy          54493468                       # Layer occupancy (ticks)
system.tol2bus.respLayer2.utilization             0.0                       # Layer utilization (%)
system.tol2bus.snoopLayer0.occupancy           556646                       # Layer occupancy (ticks)
system.tol2bus.snoopLayer0.utilization            0.0                       # Layer utilization (%)

---------- End Simulation Statistics   ----------
