
---------- Begin Simulation Statistics ----------
final_tick                               1026655096000                       # Number of ticks from beginning of simulation (restored from checkpoints and never reset)
host_inst_rate                                  58814                       # Simulator instruction rate (inst/s)
host_mem_usage                                 701668                       # Number of bytes of host memory used
host_op_rate                                    59007                       # Simulator op (including micro ops) rate (op/s)
host_seconds                                 18802.95                       # Real time elapsed on the host
host_tick_rate                               54600749                       # Simulator tick rate (ticks/s)
sim_freq                                 1000000000000                       # Frequency of simulated ticks
sim_insts                                  1105884928                       # Number of instructions simulated
sim_ops                                    1109510295                       # Number of ops (including micro ops) simulated
sim_seconds                                  1.026655                       # Number of seconds simulated
sim_ticks                                1026655096000                       # Number of ticks simulated
system.cpu0.branchPred.BTBCorrect                   0                       # Number of correct BTB predictions (this stat may not work properly.
system.cpu0.branchPred.BTBHitPct            87.940059                       # BTB Hit Percentage
system.cpu0.branchPred.BTBHits              143113556                       # Number of BTB hits
system.cpu0.branchPred.BTBLookups           162739890                       # Number of BTB lookups
system.cpu0.branchPred.RASInCorrect                 0                       # Number of incorrect RAS predictions.
system.cpu0.branchPred.condIncorrect         12753726                       # Number of conditional branches incorrect
system.cpu0.branchPred.condPredicted        225680501                       # Number of conditional branches predicted
system.cpu0.branchPred.indirectHits          18182176                       # Number of indirect target hits.
system.cpu0.branchPred.indirectLookups       18428540                       # Number of indirect predictor lookups.
system.cpu0.branchPred.indirectMisses          246364                       # Number of indirect misses.
system.cpu0.branchPred.lookups              287001161                       # Number of BP lookups
system.cpu0.branchPred.usedRAS                      0                       # Number of times the RAS was used to get a target.
system.cpu0.branchPredindirectMispredicted      1863890                       # Number of mispredicted indirect branches.
system.cpu0.commit.amos                       1811467                       # Number of atomic instructions committed
system.cpu0.commit.branchMispredicts          8472304                       # The number of times a branch was mispredicted
system.cpu0.commit.branches                 260694959                       # Number of branches committed
system.cpu0.commit.bw_lim_events             25757633                       # number cycles where commit BW limit reached
system.cpu0.commit.commitNonSpecStalls        5441374                       # The number of times commit has been forced to stall to communicate backwards
system.cpu0.commit.commitSquashedInsts       79277020                       # The number of squashed insts skipped by commit
system.cpu0.commit.committedInsts          1050796553                       # Number of instructions committed
system.cpu0.commit.committedOps            1052610543                       # Number of ops (including micro ops) committed
system.cpu0.commit.committed_per_cycle::samples   1909004605                       # Number of insts commited each cycle
system.cpu0.commit.committed_per_cycle::mean     0.551392                       # Number of insts commited each cycle
system.cpu0.commit.committed_per_cycle::stdev     1.278236                       # Number of insts commited each cycle
system.cpu0.commit.committed_per_cycle::underflows            0      0.00%      0.00% # Number of insts commited each cycle
system.cpu0.commit.committed_per_cycle::0   1385409831     72.57%     72.57% # Number of insts commited each cycle
system.cpu0.commit.committed_per_cycle::1    309108415     16.19%     88.76% # Number of insts commited each cycle
system.cpu0.commit.committed_per_cycle::2     82625399      4.33%     93.09% # Number of insts commited each cycle
system.cpu0.commit.committed_per_cycle::3     76242490      3.99%     97.09% # Number of insts commited each cycle
system.cpu0.commit.committed_per_cycle::4     17375507      0.91%     98.00% # Number of insts commited each cycle
system.cpu0.commit.committed_per_cycle::5      5051797      0.26%     98.26% # Number of insts commited each cycle
system.cpu0.commit.committed_per_cycle::6      3332948      0.17%     98.44% # Number of insts commited each cycle
system.cpu0.commit.committed_per_cycle::7      4100585      0.21%     98.65% # Number of insts commited each cycle
system.cpu0.commit.committed_per_cycle::8     25757633      1.35%    100.00% # Number of insts commited each cycle
system.cpu0.commit.committed_per_cycle::overflows            0      0.00%    100.00% # Number of insts commited each cycle
system.cpu0.commit.committed_per_cycle::min_value            0                       # Number of insts commited each cycle
system.cpu0.commit.committed_per_cycle::max_value            8                       # Number of insts commited each cycle
system.cpu0.commit.committed_per_cycle::total   1909004605                       # Number of insts commited each cycle
system.cpu0.commit.fp_insts                        50                       # Number of committed floating point instructions.
system.cpu0.commit.function_calls            20858002                       # Number of function calls committed.
system.cpu0.commit.int_insts               1015986238                       # Number of committed integer instructions.
system.cpu0.commit.loads                    326227861                       # Number of loads committed
system.cpu0.commit.membars                    3625346                       # Number of memory barriers committed
system.cpu0.commit.op_class_0::No_OpClass      3625352      0.34%      0.34% # Class of committed instruction
system.cpu0.commit.op_class_0::IntAlu       583943887     55.48%     55.82% # Class of committed instruction
system.cpu0.commit.op_class_0::IntMult        8030359      0.76%     56.58% # Class of committed instruction
system.cpu0.commit.op_class_0::IntDiv         1811037      0.17%     56.76% # Class of committed instruction
system.cpu0.commit.op_class_0::FloatAdd             0      0.00%     56.76% # Class of committed instruction
system.cpu0.commit.op_class_0::FloatCmp             4      0.00%     56.76% # Class of committed instruction
system.cpu0.commit.op_class_0::FloatCvt            12      0.00%     56.76% # Class of committed instruction
system.cpu0.commit.op_class_0::FloatMult            0      0.00%     56.76% # Class of committed instruction
system.cpu0.commit.op_class_0::FloatMultAcc            0      0.00%     56.76% # Class of committed instruction
system.cpu0.commit.op_class_0::FloatDiv             2      0.00%     56.76% # Class of committed instruction
system.cpu0.commit.op_class_0::FloatMisc            4      0.00%     56.76% # Class of committed instruction
system.cpu0.commit.op_class_0::FloatSqrt            0      0.00%     56.76% # Class of committed instruction
system.cpu0.commit.op_class_0::SimdAdd              0      0.00%     56.76% # Class of committed instruction
system.cpu0.commit.op_class_0::SimdAddAcc            0      0.00%     56.76% # Class of committed instruction
system.cpu0.commit.op_class_0::SimdAlu              0      0.00%     56.76% # Class of committed instruction
system.cpu0.commit.op_class_0::SimdCmp              0      0.00%     56.76% # Class of committed instruction
system.cpu0.commit.op_class_0::SimdCvt              0      0.00%     56.76% # Class of committed instruction
system.cpu0.commit.op_class_0::SimdMisc             0      0.00%     56.76% # Class of committed instruction
system.cpu0.commit.op_class_0::SimdMult             0      0.00%     56.76% # Class of committed instruction
system.cpu0.commit.op_class_0::SimdMultAcc            0      0.00%     56.76% # Class of committed instruction
system.cpu0.commit.op_class_0::SimdShift            0      0.00%     56.76% # Class of committed instruction
system.cpu0.commit.op_class_0::SimdShiftAcc            0      0.00%     56.76% # Class of committed instruction
system.cpu0.commit.op_class_0::SimdDiv              0      0.00%     56.76% # Class of committed instruction
system.cpu0.commit.op_class_0::SimdSqrt             0      0.00%     56.76% # Class of committed instruction
system.cpu0.commit.op_class_0::SimdFloatAdd            0      0.00%     56.76% # Class of committed instruction
system.cpu0.commit.op_class_0::SimdFloatAlu            0      0.00%     56.76% # Class of committed instruction
system.cpu0.commit.op_class_0::SimdFloatCmp            0      0.00%     56.76% # Class of committed instruction
system.cpu0.commit.op_class_0::SimdFloatCvt            0      0.00%     56.76% # Class of committed instruction
system.cpu0.commit.op_class_0::SimdFloatDiv            0      0.00%     56.76% # Class of committed instruction
system.cpu0.commit.op_class_0::SimdFloatMisc            0      0.00%     56.76% # Class of committed instruction
system.cpu0.commit.op_class_0::SimdFloatMult            0      0.00%     56.76% # Class of committed instruction
system.cpu0.commit.op_class_0::SimdFloatMultAcc            0      0.00%     56.76% # Class of committed instruction
system.cpu0.commit.op_class_0::SimdFloatSqrt            0      0.00%     56.76% # Class of committed instruction
system.cpu0.commit.op_class_0::SimdReduceAdd            0      0.00%     56.76% # Class of committed instruction
system.cpu0.commit.op_class_0::SimdReduceAlu            0      0.00%     56.76% # Class of committed instruction
system.cpu0.commit.op_class_0::SimdReduceCmp            0      0.00%     56.76% # Class of committed instruction
system.cpu0.commit.op_class_0::SimdFloatReduceAdd            0      0.00%     56.76% # Class of committed instruction
system.cpu0.commit.op_class_0::SimdFloatReduceCmp            0      0.00%     56.76% # Class of committed instruction
system.cpu0.commit.op_class_0::SimdAes              0      0.00%     56.76% # Class of committed instruction
system.cpu0.commit.op_class_0::SimdAesMix            0      0.00%     56.76% # Class of committed instruction
system.cpu0.commit.op_class_0::SimdSha1Hash            0      0.00%     56.76% # Class of committed instruction
system.cpu0.commit.op_class_0::SimdSha1Hash2            0      0.00%     56.76% # Class of committed instruction
system.cpu0.commit.op_class_0::SimdSha256Hash            0      0.00%     56.76% # Class of committed instruction
system.cpu0.commit.op_class_0::SimdSha256Hash2            0      0.00%     56.76% # Class of committed instruction
system.cpu0.commit.op_class_0::SimdShaSigma2            0      0.00%     56.76% # Class of committed instruction
system.cpu0.commit.op_class_0::SimdShaSigma3            0      0.00%     56.76% # Class of committed instruction
system.cpu0.commit.op_class_0::SimdPredAlu            0      0.00%     56.76% # Class of committed instruction
system.cpu0.commit.op_class_0::MemRead      328039320     31.16%     87.92% # Class of committed instruction
system.cpu0.commit.op_class_0::MemWrite     127160538     12.08%    100.00% # Class of committed instruction
system.cpu0.commit.op_class_0::FloatMemRead            8      0.00%    100.00% # Class of committed instruction
system.cpu0.commit.op_class_0::FloatMemWrite           20      0.00%    100.00% # Class of committed instruction
system.cpu0.commit.op_class_0::IprAccess            0      0.00%    100.00% # Class of committed instruction
system.cpu0.commit.op_class_0::InstPrefetch            0      0.00%    100.00% # Class of committed instruction
system.cpu0.commit.op_class_0::total       1052610543                       # Class of committed instruction
system.cpu0.commit.refs                     455199886                       # Number of memory references committed
system.cpu0.commit.swp_count                        0                       # Number of s/w prefetches committed
system.cpu0.commit.vec_insts                        0                       # Number of committed Vector instructions.
system.cpu0.committedInsts                 1050796553                       # Number of Instructions Simulated
system.cpu0.committedOps                   1052610543                       # Number of Ops (including micro ops) Simulated
system.cpu0.cpi                              1.950869                       # CPI: Cycles Per Instruction
system.cpu0.cpi_total                        1.950869                       # CPI: Total CPI of All Threads
system.cpu0.decode.BlockedCycles            290612461                       # Number of cycles decode is blocked
system.cpu0.decode.BranchMispred              4292885                       # Number of times decode detected a branch misprediction
system.cpu0.decode.BranchResolved           141161579                       # Number of times decode resolved a branch
system.cpu0.decode.DecodedInsts            1156181055                       # Number of instructions handled by decode
system.cpu0.decode.IdleCycles               834847022                       # Number of cycles decode is idle
system.cpu0.decode.RunCycles                784607813                       # Number of cycles decode is running
system.cpu0.decode.SquashCycles               8485083                       # Number of cycles decode is squashing
system.cpu0.decode.SquashedInsts             12970000                       # Number of squashed instructions handled by decode
system.cpu0.decode.UnblockCycles              5306431                       # Number of cycles decode is unblocking
system.cpu0.dtb.accesses                            0                       # DTB accesses
system.cpu0.dtb.hits                                0                       # DTB hits
system.cpu0.dtb.misses                              0                       # DTB misses
system.cpu0.dtb.read_accesses                       0                       # DTB read accesses
system.cpu0.dtb.read_hits                           0                       # DTB read hits
system.cpu0.dtb.read_misses                         0                       # DTB read misses
system.cpu0.dtb.write_accesses                      0                       # DTB write accesses
system.cpu0.dtb.write_hits                          0                       # DTB write hits
system.cpu0.dtb.write_misses                        0                       # DTB write misses
system.cpu0.fetch.Branches                  287001161                       # Number of branches that fetch encountered
system.cpu0.fetch.CacheLines                207032648                       # Number of cache lines fetched
system.cpu0.fetch.Cycles                   1095498089                       # Number of cycles fetch has run and was not squashing or blocked
system.cpu0.fetch.IcacheSquashes              3180177                       # Number of outstanding Icache misses that were squashed
system.cpu0.fetch.IcacheWaitRetryStallCycles           46                       # Number of stall cycles due to full MSHR
system.cpu0.fetch.Insts                    1186021740                       # Number of instructions fetch has processed
system.cpu0.fetch.MiscStallCycles                  38                       # Number of cycles fetch has spent waiting on interrupts, or bad addresses, or out of MSHRs
system.cpu0.fetch.PendingTrapStallCycles           95                       # Number of stall cycles due to pending traps
system.cpu0.fetch.SquashCycles               25533040                       # Number of cycles fetch has spent squashing
system.cpu0.fetch.branchRate                 0.140003                       # Number of branch fetches per cycle
system.cpu0.fetch.icacheStallCycles         815594022                       # Number of cycles fetch is stalled on an Icache miss
system.cpu0.fetch.predictedBranches         161295732                       # Number of branches that fetch has predicted taken
system.cpu0.fetch.rate                       0.578557                       # Number of inst fetches per cycle
system.cpu0.fetch.rateDist::samples        1923858810                       # Number of instructions fetched each cycle (Total)
system.cpu0.fetch.rateDist::mean             0.619009                       # Number of instructions fetched each cycle (Total)
system.cpu0.fetch.rateDist::stdev            0.924026                       # Number of instructions fetched each cycle (Total)
system.cpu0.fetch.rateDist::underflows              0      0.00%      0.00% # Number of instructions fetched each cycle (Total)
system.cpu0.fetch.rateDist::0              1101091855     57.23%     57.23% # Number of instructions fetched each cycle (Total)
system.cpu0.fetch.rateDist::1               603718432     31.38%     88.61% # Number of instructions fetched each cycle (Total)
system.cpu0.fetch.rateDist::2               114358943      5.94%     94.56% # Number of instructions fetched each cycle (Total)
system.cpu0.fetch.rateDist::3                79979326      4.16%     98.72% # Number of instructions fetched each cycle (Total)
system.cpu0.fetch.rateDist::4                14214961      0.74%     99.45% # Number of instructions fetched each cycle (Total)
system.cpu0.fetch.rateDist::5                 5263385      0.27%     99.73% # Number of instructions fetched each cycle (Total)
system.cpu0.fetch.rateDist::6                 1393236      0.07%     99.80% # Number of instructions fetched each cycle (Total)
system.cpu0.fetch.rateDist::7                 3734449      0.19%     99.99% # Number of instructions fetched each cycle (Total)
system.cpu0.fetch.rateDist::8                  104223      0.01%    100.00% # Number of instructions fetched each cycle (Total)
system.cpu0.fetch.rateDist::overflows               0      0.00%    100.00% # Number of instructions fetched each cycle (Total)
system.cpu0.fetch.rateDist::min_value               0                       # Number of instructions fetched each cycle (Total)
system.cpu0.fetch.rateDist::max_value               8                       # Number of instructions fetched each cycle (Total)
system.cpu0.fetch.rateDist::total          1923858810                       # Number of instructions fetched each cycle (Total)
system.cpu0.fp_regfile_reads                       47                       # number of floating regfile reads
system.cpu0.fp_regfile_writes                      22                       # number of floating regfile writes
system.cpu0.idleCycles                      126107993                       # Total number of cycles that the CPU has spent unscheduled due to idling
system.cpu0.iew.branchMispredicts             8563529                       # Number of branch mispredicts detected at execute
system.cpu0.iew.exec_branches               269063964                       # Number of branches executed
system.cpu0.iew.exec_nop                            0                       # number of nop insts executed
system.cpu0.iew.exec_rate                    0.533322                       # Inst execution rate
system.cpu0.iew.exec_refs                   476414672                       # number of memory reference insts executed
system.cpu0.iew.exec_stores                 132780762                       # Number of stores executed
system.cpu0.iew.exec_swp                            0                       # number of swp insts executed
system.cpu0.iew.iewBlockCycles              249016117                       # Number of cycles IEW is blocking
system.cpu0.iew.iewDispLoadInsts            355298992                       # Number of dispatched load instructions
system.cpu0.iew.iewDispNonSpecInsts           3581180                       # Number of dispatched non-speculative instructions
system.cpu0.iew.iewDispSquashedInsts          4453818                       # Number of squashed instructions skipped by dispatch
system.cpu0.iew.iewDispStoreInsts           137331819                       # Number of dispatched store instructions
system.cpu0.iew.iewDispatchedInsts         1131871904                       # Number of instructions dispatched to IQ
system.cpu0.iew.iewExecLoadInsts            343633910                       # Number of load instructions executed
system.cpu0.iew.iewExecSquashedInsts          7270492                       # Number of squashed instructions skipped in execute
system.cpu0.iew.iewExecutedInsts           1093291465                       # Number of executed instructions
system.cpu0.iew.iewIQFullEvents               2286531                       # Number of times the IQ has become full, causing a stall
system.cpu0.iew.iewIdleCycles                       0                       # Number of cycles IEW is idle
system.cpu0.iew.iewLSQFullEvents              3076998                       # Number of times the LSQ has become full, causing a stall
system.cpu0.iew.iewSquashCycles               8485083                       # Number of cycles IEW is squashing
system.cpu0.iew.iewUnblockCycles              7502841                       # Number of cycles IEW is unblocking
system.cpu0.iew.lsq.thread0.blockedLoads            0                       # Number of blocked loads due to partial load-store forwarding
system.cpu0.iew.lsq.thread0.cacheBlocked        87081                       # Number of times an access to memory failed due to the cache being blocked
system.cpu0.iew.lsq.thread0.forwLoads        15083831                       # Number of loads that had data forwarded from stores
system.cpu0.iew.lsq.thread0.ignoredResponses        39522                       # Number of memory responses ignored because the instruction is squashed
system.cpu0.iew.lsq.thread0.invAddrLoads            0                       # Number of loads ignored due to an invalid address
system.cpu0.iew.lsq.thread0.invAddrSwpfs            0                       # Number of software prefetches ignored due to an invalid address
system.cpu0.iew.lsq.thread0.memOrderViolation        12953                       # Number of memory ordering violations
system.cpu0.iew.lsq.thread0.rescheduledLoads      4196143                       # Number of loads that were rescheduled
system.cpu0.iew.lsq.thread0.squashedLoads     29071131                       # Number of loads squashed
system.cpu0.iew.lsq.thread0.squashedStores      8359794                       # Number of stores squashed
system.cpu0.iew.memOrderViolationEvents         12953                       # Number of memory order violations
system.cpu0.iew.predictedNotTakenIncorrect      1163177                       # Number of branches that were predicted not taken incorrectly
system.cpu0.iew.predictedTakenIncorrect       7400352                       # Number of branches that were predicted taken incorrectly
system.cpu0.iew.wb_consumers                457523799                       # num instructions consuming a value
system.cpu0.iew.wb_count                   1085119895                       # cumulative count of insts written-back
system.cpu0.iew.wb_fanout                    0.882523                       # average fanout of values written-back
system.cpu0.iew.wb_producers                403775384                       # num instructions producing a value
system.cpu0.iew.wb_rate                      0.529335                       # insts written-back per cycle
system.cpu0.iew.wb_sent                    1085192080                       # cumulative count of insts sent to commit
system.cpu0.int_regfile_reads              1338627172                       # number of integer regfile reads
system.cpu0.int_regfile_writes              691161040                       # number of integer regfile writes
system.cpu0.ipc                              0.512592                       # IPC: Instructions Per Cycle
system.cpu0.ipc_total                        0.512592                       # IPC: Total IPC of All Threads
system.cpu0.iq.FU_type_0::No_OpClass          3626838      0.33%      0.33% # Type of FU issued
system.cpu0.iq.FU_type_0::IntAlu            607042681     55.16%     55.49% # Type of FU issued
system.cpu0.iq.FU_type_0::IntMult             8035657      0.73%     56.22% # Type of FU issued
system.cpu0.iq.FU_type_0::IntDiv              1811522      0.16%     56.38% # Type of FU issued
system.cpu0.iq.FU_type_0::FloatAdd                  0      0.00%     56.38% # Type of FU issued
system.cpu0.iq.FU_type_0::FloatCmp                  4      0.00%     56.38% # Type of FU issued
system.cpu0.iq.FU_type_0::FloatCvt                 12      0.00%     56.38% # Type of FU issued
system.cpu0.iq.FU_type_0::FloatMult                 0      0.00%     56.38% # Type of FU issued
system.cpu0.iq.FU_type_0::FloatMultAcc              0      0.00%     56.38% # Type of FU issued
system.cpu0.iq.FU_type_0::FloatDiv                  2      0.00%     56.38% # Type of FU issued
system.cpu0.iq.FU_type_0::FloatMisc                 4      0.00%     56.38% # Type of FU issued
system.cpu0.iq.FU_type_0::FloatSqrt                 0      0.00%     56.38% # Type of FU issued
system.cpu0.iq.FU_type_0::SimdAdd                   0      0.00%     56.38% # Type of FU issued
system.cpu0.iq.FU_type_0::SimdAddAcc                0      0.00%     56.38% # Type of FU issued
system.cpu0.iq.FU_type_0::SimdAlu                   0      0.00%     56.38% # Type of FU issued
system.cpu0.iq.FU_type_0::SimdCmp                   0      0.00%     56.38% # Type of FU issued
system.cpu0.iq.FU_type_0::SimdCvt                   0      0.00%     56.38% # Type of FU issued
system.cpu0.iq.FU_type_0::SimdMisc                  0      0.00%     56.38% # Type of FU issued
system.cpu0.iq.FU_type_0::SimdMult                  0      0.00%     56.38% # Type of FU issued
system.cpu0.iq.FU_type_0::SimdMultAcc               0      0.00%     56.38% # Type of FU issued
system.cpu0.iq.FU_type_0::SimdShift                 0      0.00%     56.38% # Type of FU issued
system.cpu0.iq.FU_type_0::SimdShiftAcc              0      0.00%     56.38% # Type of FU issued
system.cpu0.iq.FU_type_0::SimdDiv                   0      0.00%     56.38% # Type of FU issued
system.cpu0.iq.FU_type_0::SimdSqrt                  0      0.00%     56.38% # Type of FU issued
system.cpu0.iq.FU_type_0::SimdFloatAdd              0      0.00%     56.38% # Type of FU issued
system.cpu0.iq.FU_type_0::SimdFloatAlu              0      0.00%     56.38% # Type of FU issued
system.cpu0.iq.FU_type_0::SimdFloatCmp              0      0.00%     56.38% # Type of FU issued
system.cpu0.iq.FU_type_0::SimdFloatCvt              0      0.00%     56.38% # Type of FU issued
system.cpu0.iq.FU_type_0::SimdFloatDiv              0      0.00%     56.38% # Type of FU issued
system.cpu0.iq.FU_type_0::SimdFloatMisc             0      0.00%     56.38% # Type of FU issued
system.cpu0.iq.FU_type_0::SimdFloatMult             0      0.00%     56.38% # Type of FU issued
system.cpu0.iq.FU_type_0::SimdFloatMultAcc            0      0.00%     56.38% # Type of FU issued
system.cpu0.iq.FU_type_0::SimdFloatSqrt             0      0.00%     56.38% # Type of FU issued
system.cpu0.iq.FU_type_0::SimdReduceAdd             0      0.00%     56.38% # Type of FU issued
system.cpu0.iq.FU_type_0::SimdReduceAlu             0      0.00%     56.38% # Type of FU issued
system.cpu0.iq.FU_type_0::SimdReduceCmp             0      0.00%     56.38% # Type of FU issued
system.cpu0.iq.FU_type_0::SimdFloatReduceAdd            0      0.00%     56.38% # Type of FU issued
system.cpu0.iq.FU_type_0::SimdFloatReduceCmp            0      0.00%     56.38% # Type of FU issued
system.cpu0.iq.FU_type_0::SimdAes                   0      0.00%     56.38% # Type of FU issued
system.cpu0.iq.FU_type_0::SimdAesMix                0      0.00%     56.38% # Type of FU issued
system.cpu0.iq.FU_type_0::SimdSha1Hash              0      0.00%     56.38% # Type of FU issued
system.cpu0.iq.FU_type_0::SimdSha1Hash2             0      0.00%     56.38% # Type of FU issued
system.cpu0.iq.FU_type_0::SimdSha256Hash            0      0.00%     56.38% # Type of FU issued
system.cpu0.iq.FU_type_0::SimdSha256Hash2            0      0.00%     56.38% # Type of FU issued
system.cpu0.iq.FU_type_0::SimdShaSigma2             0      0.00%     56.38% # Type of FU issued
system.cpu0.iq.FU_type_0::SimdShaSigma3             0      0.00%     56.38% # Type of FU issued
system.cpu0.iq.FU_type_0::SimdPredAlu               0      0.00%     56.38% # Type of FU issued
system.cpu0.iq.FU_type_0::MemRead           348807427     31.69%     88.08% # Type of FU issued
system.cpu0.iq.FU_type_0::MemWrite          131237777     11.92%    100.00% # Type of FU issued
system.cpu0.iq.FU_type_0::FloatMemRead              8      0.00%    100.00% # Type of FU issued
system.cpu0.iq.FU_type_0::FloatMemWrite            26      0.00%    100.00% # Type of FU issued
system.cpu0.iq.FU_type_0::IprAccess                 0      0.00%    100.00% # Type of FU issued
system.cpu0.iq.FU_type_0::InstPrefetch              0      0.00%    100.00% # Type of FU issued
system.cpu0.iq.FU_type_0::total            1100561958                       # Type of FU issued
system.cpu0.iq.fp_alu_accesses                     58                       # Number of floating point alu accesses
system.cpu0.iq.fp_inst_queue_reads                114                       # Number of floating instruction queue reads
system.cpu0.iq.fp_inst_queue_wakeup_accesses           53                       # Number of floating instruction queue wakeup accesses
system.cpu0.iq.fp_inst_queue_writes                62                       # Number of floating instruction queue writes
system.cpu0.iq.fu_busy_cnt                    2235131                       # FU busy when requested
system.cpu0.iq.fu_busy_rate                  0.002031                       # FU busy rate (busy events/executed inst)
system.cpu0.iq.fu_full::No_OpClass                  0      0.00%      0.00% # attempts to use FU when none available
system.cpu0.iq.fu_full::IntAlu                 372299     16.66%     16.66% # attempts to use FU when none available
system.cpu0.iq.fu_full::IntMult                     0      0.00%     16.66% # attempts to use FU when none available
system.cpu0.iq.fu_full::IntDiv                      0      0.00%     16.66% # attempts to use FU when none available
system.cpu0.iq.fu_full::FloatAdd                    0      0.00%     16.66% # attempts to use FU when none available
system.cpu0.iq.fu_full::FloatCmp                    0      0.00%     16.66% # attempts to use FU when none available
system.cpu0.iq.fu_full::FloatCvt                    0      0.00%     16.66% # attempts to use FU when none available
system.cpu0.iq.fu_full::FloatMult                   0      0.00%     16.66% # attempts to use FU when none available
system.cpu0.iq.fu_full::FloatMultAcc                0      0.00%     16.66% # attempts to use FU when none available
system.cpu0.iq.fu_full::FloatDiv                    0      0.00%     16.66% # attempts to use FU when none available
system.cpu0.iq.fu_full::FloatMisc                   0      0.00%     16.66% # attempts to use FU when none available
system.cpu0.iq.fu_full::FloatSqrt                   0      0.00%     16.66% # attempts to use FU when none available
system.cpu0.iq.fu_full::SimdAdd                     0      0.00%     16.66% # attempts to use FU when none available
system.cpu0.iq.fu_full::SimdAddAcc                  0      0.00%     16.66% # attempts to use FU when none available
system.cpu0.iq.fu_full::SimdAlu                     0      0.00%     16.66% # attempts to use FU when none available
system.cpu0.iq.fu_full::SimdCmp                     0      0.00%     16.66% # attempts to use FU when none available
system.cpu0.iq.fu_full::SimdCvt                     0      0.00%     16.66% # attempts to use FU when none available
system.cpu0.iq.fu_full::SimdMisc                    0      0.00%     16.66% # attempts to use FU when none available
system.cpu0.iq.fu_full::SimdMult                    0      0.00%     16.66% # attempts to use FU when none available
system.cpu0.iq.fu_full::SimdMultAcc                 0      0.00%     16.66% # attempts to use FU when none available
system.cpu0.iq.fu_full::SimdShift                   0      0.00%     16.66% # attempts to use FU when none available
system.cpu0.iq.fu_full::SimdShiftAcc                0      0.00%     16.66% # attempts to use FU when none available
system.cpu0.iq.fu_full::SimdDiv                     0      0.00%     16.66% # attempts to use FU when none available
system.cpu0.iq.fu_full::SimdSqrt                    0      0.00%     16.66% # attempts to use FU when none available
system.cpu0.iq.fu_full::SimdFloatAdd                0      0.00%     16.66% # attempts to use FU when none available
system.cpu0.iq.fu_full::SimdFloatAlu                0      0.00%     16.66% # attempts to use FU when none available
system.cpu0.iq.fu_full::SimdFloatCmp                0      0.00%     16.66% # attempts to use FU when none available
system.cpu0.iq.fu_full::SimdFloatCvt                0      0.00%     16.66% # attempts to use FU when none available
system.cpu0.iq.fu_full::SimdFloatDiv                0      0.00%     16.66% # attempts to use FU when none available
system.cpu0.iq.fu_full::SimdFloatMisc               0      0.00%     16.66% # attempts to use FU when none available
system.cpu0.iq.fu_full::SimdFloatMult               0      0.00%     16.66% # attempts to use FU when none available
system.cpu0.iq.fu_full::SimdFloatMultAcc            0      0.00%     16.66% # attempts to use FU when none available
system.cpu0.iq.fu_full::SimdFloatSqrt               0      0.00%     16.66% # attempts to use FU when none available
system.cpu0.iq.fu_full::SimdReduceAdd               0      0.00%     16.66% # attempts to use FU when none available
system.cpu0.iq.fu_full::SimdReduceAlu               0      0.00%     16.66% # attempts to use FU when none available
system.cpu0.iq.fu_full::SimdReduceCmp               0      0.00%     16.66% # attempts to use FU when none available
system.cpu0.iq.fu_full::SimdFloatReduceAdd            0      0.00%     16.66% # attempts to use FU when none available
system.cpu0.iq.fu_full::SimdFloatReduceCmp            0      0.00%     16.66% # attempts to use FU when none available
system.cpu0.iq.fu_full::SimdAes                     0      0.00%     16.66% # attempts to use FU when none available
system.cpu0.iq.fu_full::SimdAesMix                  0      0.00%     16.66% # attempts to use FU when none available
system.cpu0.iq.fu_full::SimdSha1Hash                0      0.00%     16.66% # attempts to use FU when none available
system.cpu0.iq.fu_full::SimdSha1Hash2               0      0.00%     16.66% # attempts to use FU when none available
system.cpu0.iq.fu_full::SimdSha256Hash              0      0.00%     16.66% # attempts to use FU when none available
system.cpu0.iq.fu_full::SimdSha256Hash2             0      0.00%     16.66% # attempts to use FU when none available
system.cpu0.iq.fu_full::SimdShaSigma2               0      0.00%     16.66% # attempts to use FU when none available
system.cpu0.iq.fu_full::SimdShaSigma3               0      0.00%     16.66% # attempts to use FU when none available
system.cpu0.iq.fu_full::SimdPredAlu                 0      0.00%     16.66% # attempts to use FU when none available
system.cpu0.iq.fu_full::MemRead               1692811     75.74%     92.39% # attempts to use FU when none available
system.cpu0.iq.fu_full::MemWrite               170019      7.61%    100.00% # attempts to use FU when none available
system.cpu0.iq.fu_full::FloatMemRead                0      0.00%    100.00% # attempts to use FU when none available
system.cpu0.iq.fu_full::FloatMemWrite               2      0.00%    100.00% # attempts to use FU when none available
system.cpu0.iq.fu_full::IprAccess                   0      0.00%    100.00% # attempts to use FU when none available
system.cpu0.iq.fu_full::InstPrefetch                0      0.00%    100.00% # attempts to use FU when none available
system.cpu0.iq.int_alu_accesses            1099170193                       # Number of integer alu accesses
system.cpu0.iq.int_inst_queue_reads        4127329300                       # Number of integer instruction queue reads
system.cpu0.iq.int_inst_queue_wakeup_accesses   1085119842                       # Number of integer instruction queue wakeup accesses
system.cpu0.iq.int_inst_queue_writes       1211145308                       # Number of integer instruction queue writes
system.cpu0.iq.iqInstsAdded                1121135293                       # Number of instructions added to the IQ (excludes non-spec)
system.cpu0.iq.iqInstsIssued               1100561958                       # Number of instructions issued
system.cpu0.iq.iqNonSpecInstsAdded           10736611                       # Number of non-speculative instructions added to the IQ
system.cpu0.iq.iqSquashedInstsExamined       79261357                       # Number of squashed instructions iterated over during squash; mainly for profiling
system.cpu0.iq.iqSquashedInstsIssued           111558                       # Number of squashed instructions issued
system.cpu0.iq.iqSquashedNonSpecRemoved       5295237                       # Number of squashed non-spec instructions that were removed
system.cpu0.iq.iqSquashedOperandsExamined     47826692                       # Number of squashed operands that are examined and possibly removed from graph
system.cpu0.iq.issued_per_cycle::samples   1923858810                       # Number of insts issued each cycle
system.cpu0.iq.issued_per_cycle::mean        0.572060                       # Number of insts issued each cycle
system.cpu0.iq.issued_per_cycle::stdev       0.799008                       # Number of insts issued each cycle
system.cpu0.iq.issued_per_cycle::underflows            0      0.00%      0.00% # Number of insts issued each cycle
system.cpu0.iq.issued_per_cycle::0         1117596193     58.09%     58.09% # Number of insts issued each cycle
system.cpu0.iq.issued_per_cycle::1          575441377     29.91%     88.00% # Number of insts issued each cycle
system.cpu0.iq.issued_per_cycle::2          181950989      9.46%     97.46% # Number of insts issued each cycle
system.cpu0.iq.issued_per_cycle::3           38074016      1.98%     99.44% # Number of insts issued each cycle
system.cpu0.iq.issued_per_cycle::4            8691817      0.45%     99.89% # Number of insts issued each cycle
system.cpu0.iq.issued_per_cycle::5             987225      0.05%     99.94% # Number of insts issued each cycle
system.cpu0.iq.issued_per_cycle::6             654403      0.03%     99.98% # Number of insts issued each cycle
system.cpu0.iq.issued_per_cycle::7             335576      0.02%     99.99% # Number of insts issued each cycle
system.cpu0.iq.issued_per_cycle::8             127214      0.01%    100.00% # Number of insts issued each cycle
system.cpu0.iq.issued_per_cycle::overflows            0      0.00%    100.00% # Number of insts issued each cycle
system.cpu0.iq.issued_per_cycle::min_value            0                       # Number of insts issued each cycle
system.cpu0.iq.issued_per_cycle::max_value            8                       # Number of insts issued each cycle
system.cpu0.iq.issued_per_cycle::total     1923858810                       # Number of insts issued each cycle
system.cpu0.iq.rate                          0.536868                       # Inst issue rate
system.cpu0.iq.vec_alu_accesses                     0                       # Number of vector alu accesses
system.cpu0.iq.vec_inst_queue_reads                 0                       # Number of vector instruction queue reads
system.cpu0.iq.vec_inst_queue_wakeup_accesses            0                       # Number of vector instruction queue wakeup accesses
system.cpu0.iq.vec_inst_queue_writes                0                       # Number of vector instruction queue writes
system.cpu0.itb.accesses                            0                       # DTB accesses
system.cpu0.itb.hits                                0                       # DTB hits
system.cpu0.itb.misses                              0                       # DTB misses
system.cpu0.itb.read_accesses                       0                       # DTB read accesses
system.cpu0.itb.read_hits                           0                       # DTB read hits
system.cpu0.itb.read_misses                         0                       # DTB read misses
system.cpu0.itb.write_accesses                      0                       # DTB write accesses
system.cpu0.itb.write_hits                          0                       # DTB write hits
system.cpu0.itb.write_misses                        0                       # DTB write misses
system.cpu0.memDep0.conflictingLoads         28164434                       # Number of conflicting loads.
system.cpu0.memDep0.conflictingStores         4639600                       # Number of conflicting stores.
system.cpu0.memDep0.insertedLoads           355298992                       # Number of loads inserted to the mem dependence unit.
system.cpu0.memDep0.insertedStores          137331819                       # Number of stores inserted to the mem dependence unit.
system.cpu0.misc_regfile_reads                   1503                       # number of misc regfile reads
system.cpu0.misc_regfile_writes                    22                       # number of misc regfile writes
system.cpu0.numCycles                      2049966803                       # number of cpu cycles simulated
system.cpu0.numWorkItemsCompleted                   0                       # number of work items this cpu completed
system.cpu0.numWorkItemsStarted                     0                       # number of work items this cpu started
system.cpu0.quiesceCycles                     3344712                       # Total number of cycles that CPU has spent quiesced or waiting for an interrupt
system.cpu0.rename.BlockCycles              267314487                       # Number of cycles rename is blocking
system.cpu0.rename.CommittedMaps            670644997                       # Number of HB maps that are committed
system.cpu0.rename.IQFullEvents               9918006                       # Number of times rename has blocked due to IQ full
system.cpu0.rename.IdleCycles               845454370                       # Number of cycles rename is idle
system.cpu0.rename.LQFullEvents               7431027                       # Number of times rename has blocked due to LQ full
system.cpu0.rename.ROBFullEvents                28674                       # Number of times rename has blocked due to ROB full
system.cpu0.rename.RenameLookups           1397812195                       # Number of register rename lookups that rename has made
system.cpu0.rename.RenamedInsts            1143593899                       # Number of instructions processed by rename
system.cpu0.rename.RenamedOperands          733130323                       # Number of destination operands rename has renamed
system.cpu0.rename.RunCycles                777948983                       # Number of cycles rename is running
system.cpu0.rename.SQFullEvents               6467004                       # Number of times rename has blocked due to SQ full
system.cpu0.rename.SquashCycles               8485083                       # Number of cycles rename is squashing
system.cpu0.rename.UnblockCycles             24531688                       # Number of cycles rename is unblocking
system.cpu0.rename.UndoneMaps                62485321                       # Number of HB maps that are undone due to squashing
system.cpu0.rename.fp_rename_lookups               50                       # Number of floating rename lookups
system.cpu0.rename.int_rename_lookups      1397812145                       # Number of integer rename lookups
system.cpu0.rename.serializeStallCycles        124199                       # count of cycles rename stalled for serializing inst
system.cpu0.rename.serializingInsts              4711                       # count of serializing insts renamed
system.cpu0.rename.skidInsts                 20916414                       # count of insts added to the skid buffer
system.cpu0.rename.tempSerializingInsts          4666                       # count of temporary serializing insts renamed
system.cpu0.rob.rob_reads                  3015115490                       # The number of ROB reads
system.cpu0.rob.rob_writes                 2278646256                       # The number of ROB writes
system.cpu0.timesIdled                       26883002                       # Number of times that the entire CPU went into an idle state and unscheduled itself
system.cpu0.workload.numSyscalls                 1470                       # Number of system calls
system.cpu1.branchPred.BTBCorrect                   0                       # Number of correct BTB predictions (this stat may not work properly.
system.cpu1.branchPred.BTBHitPct            93.188321                       # BTB Hit Percentage
system.cpu1.branchPred.BTBHits                9587029                       # Number of BTB hits
system.cpu1.branchPred.BTBLookups            10287801                       # Number of BTB lookups
system.cpu1.branchPred.RASInCorrect                 0                       # Number of incorrect RAS predictions.
system.cpu1.branchPred.condIncorrect          1921711                       # Number of conditional branches incorrect
system.cpu1.branchPred.condPredicted         18879254                       # Number of conditional branches predicted
system.cpu1.branchPred.indirectHits            319816                       # Number of indirect target hits.
system.cpu1.branchPred.indirectLookups         641287                       # Number of indirect predictor lookups.
system.cpu1.branchPred.indirectMisses          321471                       # Number of indirect misses.
system.cpu1.branchPred.lookups               20705812                       # Number of BP lookups
system.cpu1.branchPred.usedRAS                      0                       # Number of times the RAS was used to get a target.
system.cpu1.branchPredindirectMispredicted         4671                       # Number of mispredicted indirect branches.
system.cpu1.commit.amos                       1811199                       # Number of atomic instructions committed
system.cpu1.commit.branchMispredicts          1123344                       # The number of times a branch was mispredicted
system.cpu1.commit.branches                  12204686                       # Number of branches committed
system.cpu1.commit.bw_lim_events              1183851                       # number cycles where commit BW limit reached
system.cpu1.commit.commitNonSpecStalls        5434270                       # The number of times commit has been forced to stall to communicate backwards
system.cpu1.commit.commitSquashedInsts       21766678                       # The number of squashed insts skipped by commit
system.cpu1.commit.committedInsts            55088375                       # Number of instructions committed
system.cpu1.commit.committedOps              56899752                       # Number of ops (including micro ops) committed
system.cpu1.commit.committed_per_cycle::samples    311763841                       # Number of insts commited each cycle
system.cpu1.commit.committed_per_cycle::mean     0.182509                       # Number of insts commited each cycle
system.cpu1.commit.committed_per_cycle::stdev     0.829372                       # Number of insts commited each cycle
system.cpu1.commit.committed_per_cycle::underflows            0      0.00%      0.00% # Number of insts commited each cycle
system.cpu1.commit.committed_per_cycle::0    287565115     92.24%     92.24% # Number of insts commited each cycle
system.cpu1.commit.committed_per_cycle::1     12225476      3.92%     96.16% # Number of insts commited each cycle
system.cpu1.commit.committed_per_cycle::2      4064243      1.30%     97.46% # Number of insts commited each cycle
system.cpu1.commit.committed_per_cycle::3      3751557      1.20%     98.67% # Number of insts commited each cycle
system.cpu1.commit.committed_per_cycle::4       906424      0.29%     98.96% # Number of insts commited each cycle
system.cpu1.commit.committed_per_cycle::5       304798      0.10%     99.05% # Number of insts commited each cycle
system.cpu1.commit.committed_per_cycle::6      1666014      0.53%     99.59% # Number of insts commited each cycle
system.cpu1.commit.committed_per_cycle::7        96363      0.03%     99.62% # Number of insts commited each cycle
system.cpu1.commit.committed_per_cycle::8      1183851      0.38%    100.00% # Number of insts commited each cycle
system.cpu1.commit.committed_per_cycle::overflows            0      0.00%    100.00% # Number of insts commited each cycle
system.cpu1.commit.committed_per_cycle::min_value            0                       # Number of insts commited each cycle
system.cpu1.commit.committed_per_cycle::max_value            8                       # Number of insts commited each cycle
system.cpu1.commit.committed_per_cycle::total    311763841                       # Number of insts commited each cycle
system.cpu1.commit.fp_insts                        12                       # Number of committed floating point instructions.
system.cpu1.commit.function_calls              502834                       # Number of function calls committed.
system.cpu1.commit.int_insts                 52985380                       # Number of committed integer instructions.
system.cpu1.commit.loads                     16127711                       # Number of loads committed
system.cpu1.commit.membars                    3622524                       # Number of memory barriers committed
system.cpu1.commit.op_class_0::No_OpClass      3622524      6.37%      6.37% # Class of committed instruction
system.cpu1.commit.op_class_0::IntAlu        32019116     56.27%     62.64% # Class of committed instruction
system.cpu1.commit.op_class_0::IntMult             43      0.00%     62.64% # Class of committed instruction
system.cpu1.commit.op_class_0::IntDiv              86      0.00%     62.64% # Class of committed instruction
system.cpu1.commit.op_class_0::FloatAdd             0      0.00%     62.64% # Class of committed instruction
system.cpu1.commit.op_class_0::FloatCmp             0      0.00%     62.64% # Class of committed instruction
system.cpu1.commit.op_class_0::FloatCvt             0      0.00%     62.64% # Class of committed instruction
system.cpu1.commit.op_class_0::FloatMult            0      0.00%     62.64% # Class of committed instruction
system.cpu1.commit.op_class_0::FloatMultAcc            0      0.00%     62.64% # Class of committed instruction
system.cpu1.commit.op_class_0::FloatDiv             0      0.00%     62.64% # Class of committed instruction
system.cpu1.commit.op_class_0::FloatMisc            0      0.00%     62.64% # Class of committed instruction
system.cpu1.commit.op_class_0::FloatSqrt            0      0.00%     62.64% # Class of committed instruction
system.cpu1.commit.op_class_0::SimdAdd              0      0.00%     62.64% # Class of committed instruction
system.cpu1.commit.op_class_0::SimdAddAcc            0      0.00%     62.64% # Class of committed instruction
system.cpu1.commit.op_class_0::SimdAlu              0      0.00%     62.64% # Class of committed instruction
system.cpu1.commit.op_class_0::SimdCmp              0      0.00%     62.64% # Class of committed instruction
system.cpu1.commit.op_class_0::SimdCvt              0      0.00%     62.64% # Class of committed instruction
system.cpu1.commit.op_class_0::SimdMisc             0      0.00%     62.64% # Class of committed instruction
system.cpu1.commit.op_class_0::SimdMult             0      0.00%     62.64% # Class of committed instruction
system.cpu1.commit.op_class_0::SimdMultAcc            0      0.00%     62.64% # Class of committed instruction
system.cpu1.commit.op_class_0::SimdShift            0      0.00%     62.64% # Class of committed instruction
system.cpu1.commit.op_class_0::SimdShiftAcc            0      0.00%     62.64% # Class of committed instruction
system.cpu1.commit.op_class_0::SimdDiv              0      0.00%     62.64% # Class of committed instruction
system.cpu1.commit.op_class_0::SimdSqrt             0      0.00%     62.64% # Class of committed instruction
system.cpu1.commit.op_class_0::SimdFloatAdd            0      0.00%     62.64% # Class of committed instruction
system.cpu1.commit.op_class_0::SimdFloatAlu            0      0.00%     62.64% # Class of committed instruction
system.cpu1.commit.op_class_0::SimdFloatCmp            0      0.00%     62.64% # Class of committed instruction
system.cpu1.commit.op_class_0::SimdFloatCvt            0      0.00%     62.64% # Class of committed instruction
system.cpu1.commit.op_class_0::SimdFloatDiv            0      0.00%     62.64% # Class of committed instruction
system.cpu1.commit.op_class_0::SimdFloatMisc            0      0.00%     62.64% # Class of committed instruction
system.cpu1.commit.op_class_0::SimdFloatMult            0      0.00%     62.64% # Class of committed instruction
system.cpu1.commit.op_class_0::SimdFloatMultAcc            0      0.00%     62.64% # Class of committed instruction
system.cpu1.commit.op_class_0::SimdFloatSqrt            0      0.00%     62.64% # Class of committed instruction
system.cpu1.commit.op_class_0::SimdReduceAdd            0      0.00%     62.64% # Class of committed instruction
system.cpu1.commit.op_class_0::SimdReduceAlu            0      0.00%     62.64% # Class of committed instruction
system.cpu1.commit.op_class_0::SimdReduceCmp            0      0.00%     62.64% # Class of committed instruction
system.cpu1.commit.op_class_0::SimdFloatReduceAdd            0      0.00%     62.64% # Class of committed instruction
system.cpu1.commit.op_class_0::SimdFloatReduceCmp            0      0.00%     62.64% # Class of committed instruction
system.cpu1.commit.op_class_0::SimdAes              0      0.00%     62.64% # Class of committed instruction
system.cpu1.commit.op_class_0::SimdAesMix            0      0.00%     62.64% # Class of committed instruction
system.cpu1.commit.op_class_0::SimdSha1Hash            0      0.00%     62.64% # Class of committed instruction
system.cpu1.commit.op_class_0::SimdSha1Hash2            0      0.00%     62.64% # Class of committed instruction
system.cpu1.commit.op_class_0::SimdSha256Hash            0      0.00%     62.64% # Class of committed instruction
system.cpu1.commit.op_class_0::SimdSha256Hash2            0      0.00%     62.64% # Class of committed instruction
system.cpu1.commit.op_class_0::SimdShaSigma2            0      0.00%     62.64% # Class of committed instruction
system.cpu1.commit.op_class_0::SimdShaSigma3            0      0.00%     62.64% # Class of committed instruction
system.cpu1.commit.op_class_0::SimdPredAlu            0      0.00%     62.64% # Class of committed instruction
system.cpu1.commit.op_class_0::MemRead       17938910     31.53%     94.17% # Class of committed instruction
system.cpu1.commit.op_class_0::MemWrite       3319061      5.83%    100.00% # Class of committed instruction
system.cpu1.commit.op_class_0::FloatMemRead            0      0.00%    100.00% # Class of committed instruction
system.cpu1.commit.op_class_0::FloatMemWrite           12      0.00%    100.00% # Class of committed instruction
system.cpu1.commit.op_class_0::IprAccess            0      0.00%    100.00% # Class of committed instruction
system.cpu1.commit.op_class_0::InstPrefetch            0      0.00%    100.00% # Class of committed instruction
system.cpu1.commit.op_class_0::total         56899752                       # Class of committed instruction
system.cpu1.commit.refs                      21257983                       # Number of memory references committed
system.cpu1.commit.swp_count                        0                       # Number of s/w prefetches committed
system.cpu1.commit.vec_insts                        0                       # Number of committed Vector instructions.
system.cpu1.committedInsts                   55088375                       # Number of Instructions Simulated
system.cpu1.committedOps                     56899752                       # Number of Ops (including micro ops) Simulated
system.cpu1.cpi                              5.729091                       # CPI: Cycles Per Instruction
system.cpu1.cpi_total                        5.729091                       # CPI: Total CPI of All Threads
system.cpu1.decode.BlockedCycles            268003881                       # Number of cycles decode is blocked
system.cpu1.decode.BranchMispred               804520                       # Number of times decode detected a branch misprediction
system.cpu1.decode.BranchResolved             8613768                       # Number of times decode resolved a branch
system.cpu1.decode.DecodedInsts              86455850                       # Number of instructions handled by decode
system.cpu1.decode.IdleCycles                13311738                       # Number of cycles decode is idle
system.cpu1.decode.RunCycles                 28487268                       # Number of cycles decode is running
system.cpu1.decode.SquashCycles               1123727                       # Number of cycles decode is squashing
system.cpu1.decode.SquashedInsts              1146473                       # Number of squashed instructions handled by decode
system.cpu1.decode.UnblockCycles              4303068                       # Number of cycles decode is unblocking
system.cpu1.dtb.accesses                            0                       # DTB accesses
system.cpu1.dtb.hits                                0                       # DTB hits
system.cpu1.dtb.misses                              0                       # DTB misses
system.cpu1.dtb.read_accesses                       0                       # DTB read accesses
system.cpu1.dtb.read_hits                           0                       # DTB read hits
system.cpu1.dtb.read_misses                         0                       # DTB read misses
system.cpu1.dtb.write_accesses                      0                       # DTB write accesses
system.cpu1.dtb.write_hits                          0                       # DTB write hits
system.cpu1.dtb.write_misses                        0                       # DTB write misses
system.cpu1.fetch.Branches                   20705812                       # Number of branches that fetch encountered
system.cpu1.fetch.CacheLines                 13036313                       # Number of cache lines fetched
system.cpu1.fetch.Cycles                    298903705                       # Number of cycles fetch has run and was not squashing or blocked
system.cpu1.fetch.IcacheSquashes                87968                       # Number of outstanding Icache misses that were squashed
system.cpu1.fetch.Insts                     101039438                       # Number of instructions fetch has processed
system.cpu1.fetch.MiscStallCycles                   1                       # Number of cycles fetch has spent waiting on interrupts, or bad addresses, or out of MSHRs
system.cpu1.fetch.SquashCycles                3844188                       # Number of cycles fetch has spent squashing
system.cpu1.fetch.branchRate                 0.065606                       # Number of branch fetches per cycle
system.cpu1.fetch.icacheStallCycles          14403882                       # Number of cycles fetch is stalled on an Icache miss
system.cpu1.fetch.predictedBranches           9906845                       # Number of branches that fetch has predicted taken
system.cpu1.fetch.rate                       0.320144                       # Number of inst fetches per cycle
system.cpu1.fetch.rateDist::samples         315229682                       # Number of instructions fetched each cycle (Total)
system.cpu1.fetch.rateDist::mean             0.333103                       # Number of instructions fetched each cycle (Total)
system.cpu1.fetch.rateDist::stdev            0.845156                       # Number of instructions fetched each cycle (Total)
system.cpu1.fetch.rateDist::underflows              0      0.00%      0.00% # Number of instructions fetched each cycle (Total)
system.cpu1.fetch.rateDist::0               256062178     81.23%     81.23% # Number of instructions fetched each cycle (Total)
system.cpu1.fetch.rateDist::1                32491096     10.31%     91.54% # Number of instructions fetched each cycle (Total)
system.cpu1.fetch.rateDist::2                15784044      5.01%     96.54% # Number of instructions fetched each cycle (Total)
system.cpu1.fetch.rateDist::3                 6313781      2.00%     98.55% # Number of instructions fetched each cycle (Total)
system.cpu1.fetch.rateDist::4                 1492777      0.47%     99.02% # Number of instructions fetched each cycle (Total)
system.cpu1.fetch.rateDist::5                 2491431      0.79%     99.81% # Number of instructions fetched each cycle (Total)
system.cpu1.fetch.rateDist::6                  588075      0.19%    100.00% # Number of instructions fetched each cycle (Total)
system.cpu1.fetch.rateDist::7                    3540      0.00%    100.00% # Number of instructions fetched each cycle (Total)
system.cpu1.fetch.rateDist::8                    2760      0.00%    100.00% # Number of instructions fetched each cycle (Total)
system.cpu1.fetch.rateDist::overflows               0      0.00%    100.00% # Number of instructions fetched each cycle (Total)
system.cpu1.fetch.rateDist::min_value               0                       # Number of instructions fetched each cycle (Total)
system.cpu1.fetch.rateDist::max_value               8                       # Number of instructions fetched each cycle (Total)
system.cpu1.fetch.rateDist::total           315229682                       # Number of instructions fetched each cycle (Total)
system.cpu1.fp_regfile_reads                       12                       # number of floating regfile reads
system.cpu1.idleCycles                         376612                       # Total number of cycles that the CPU has spent unscheduled due to idling
system.cpu1.iew.branchMispredicts             1183200                       # Number of branch mispredicts detected at execute
system.cpu1.iew.exec_branches                14621802                       # Number of branches executed
system.cpu1.iew.exec_nop                            0                       # number of nop insts executed
system.cpu1.iew.exec_rate                    0.202996                       # Inst execution rate
system.cpu1.iew.exec_refs                    22410824                       # number of memory reference insts executed
system.cpu1.iew.exec_stores                   5207938                       # Number of stores executed
system.cpu1.iew.exec_swp                            0                       # number of swp insts executed
system.cpu1.iew.iewBlockCycles              234733075                       # Number of cycles IEW is blocking
system.cpu1.iew.iewDispLoadInsts             22460679                       # Number of dispatched load instructions
system.cpu1.iew.iewDispNonSpecInsts           2712385                       # Number of dispatched non-speculative instructions
system.cpu1.iew.iewDispSquashedInsts          1713589                       # Number of squashed instructions skipped by dispatch
system.cpu1.iew.iewDispStoreInsts             7075690                       # Number of dispatched store instructions
system.cpu1.iew.iewDispatchedInsts           78658981                       # Number of instructions dispatched to IQ
system.cpu1.iew.iewExecLoadInsts             17202886                       # Number of load instructions executed
system.cpu1.iew.iewExecSquashedInsts           864134                       # Number of squashed instructions skipped in execute
system.cpu1.iew.iewExecutedInsts             64066847                       # Number of executed instructions
system.cpu1.iew.iewIQFullEvents               1526403                       # Number of times the IQ has become full, causing a stall
system.cpu1.iew.iewIdleCycles                       0                       # Number of cycles IEW is idle
system.cpu1.iew.iewLSQFullEvents              1608393                       # Number of times the LSQ has become full, causing a stall
system.cpu1.iew.iewSquashCycles               1123727                       # Number of cycles IEW is squashing
system.cpu1.iew.iewUnblockCycles              5074817                       # Number of cycles IEW is unblocking
system.cpu1.iew.lsq.thread0.blockedLoads            0                       # Number of blocked loads due to partial load-store forwarding
system.cpu1.iew.lsq.thread0.cacheBlocked        15612                       # Number of times an access to memory failed due to the cache being blocked
system.cpu1.iew.lsq.thread0.forwLoads          269395                       # Number of loads that had data forwarded from stores
system.cpu1.iew.lsq.thread0.ignoredResponses         6854                       # Number of memory responses ignored because the instruction is squashed
system.cpu1.iew.lsq.thread0.invAddrLoads            0                       # Number of loads ignored due to an invalid address
system.cpu1.iew.lsq.thread0.invAddrSwpfs            0                       # Number of software prefetches ignored due to an invalid address
system.cpu1.iew.lsq.thread0.memOrderViolation          401                       # Number of memory ordering violations
system.cpu1.iew.lsq.thread0.rescheduledLoads         1684                       # Number of loads that were rescheduled
system.cpu1.iew.lsq.thread0.squashedLoads      6332968                       # Number of loads squashed
system.cpu1.iew.lsq.thread0.squashedStores      1945418                       # Number of stores squashed
system.cpu1.iew.memOrderViolationEvents           401                       # Number of memory order violations
system.cpu1.iew.predictedNotTakenIncorrect       197545                       # Number of branches that were predicted not taken incorrectly
system.cpu1.iew.predictedTakenIncorrect        985655                       # Number of branches that were predicted taken incorrectly
system.cpu1.iew.wb_consumers                 36237197                       # num instructions consuming a value
system.cpu1.iew.wb_count                     63680673                       # cumulative count of insts written-back
system.cpu1.iew.wb_fanout                    0.860115                       # average fanout of values written-back
system.cpu1.iew.wb_producers                 31168173                       # num instructions producing a value
system.cpu1.iew.wb_rate                      0.201773                       # insts written-back per cycle
system.cpu1.iew.wb_sent                      63694920                       # cumulative count of insts sent to commit
system.cpu1.int_regfile_reads                80046398                       # number of integer regfile reads
system.cpu1.int_regfile_writes               42329499                       # number of integer regfile writes
system.cpu1.ipc                              0.174548                       # IPC: Instructions Per Cycle
system.cpu1.ipc_total                        0.174548                       # IPC: Total IPC of All Threads
system.cpu1.iq.FU_type_0::No_OpClass          3622626      5.58%      5.58% # Type of FU issued
system.cpu1.iq.FU_type_0::IntAlu             38737073     59.66%     65.24% # Type of FU issued
system.cpu1.iq.FU_type_0::IntMult                  46      0.00%     65.24% # Type of FU issued
system.cpu1.iq.FU_type_0::IntDiv                   86      0.00%     65.24% # Type of FU issued
system.cpu1.iq.FU_type_0::FloatAdd                  0      0.00%     65.24% # Type of FU issued
system.cpu1.iq.FU_type_0::FloatCmp                  0      0.00%     65.24% # Type of FU issued
system.cpu1.iq.FU_type_0::FloatCvt                  0      0.00%     65.24% # Type of FU issued
system.cpu1.iq.FU_type_0::FloatMult                 0      0.00%     65.24% # Type of FU issued
system.cpu1.iq.FU_type_0::FloatMultAcc              0      0.00%     65.24% # Type of FU issued
system.cpu1.iq.FU_type_0::FloatDiv                  0      0.00%     65.24% # Type of FU issued
system.cpu1.iq.FU_type_0::FloatMisc                 0      0.00%     65.24% # Type of FU issued
system.cpu1.iq.FU_type_0::FloatSqrt                 0      0.00%     65.24% # Type of FU issued
system.cpu1.iq.FU_type_0::SimdAdd                   0      0.00%     65.24% # Type of FU issued
system.cpu1.iq.FU_type_0::SimdAddAcc                0      0.00%     65.24% # Type of FU issued
system.cpu1.iq.FU_type_0::SimdAlu                   0      0.00%     65.24% # Type of FU issued
system.cpu1.iq.FU_type_0::SimdCmp                   0      0.00%     65.24% # Type of FU issued
system.cpu1.iq.FU_type_0::SimdCvt                   0      0.00%     65.24% # Type of FU issued
system.cpu1.iq.FU_type_0::SimdMisc                  0      0.00%     65.24% # Type of FU issued
system.cpu1.iq.FU_type_0::SimdMult                  0      0.00%     65.24% # Type of FU issued
system.cpu1.iq.FU_type_0::SimdMultAcc               0      0.00%     65.24% # Type of FU issued
system.cpu1.iq.FU_type_0::SimdShift                 0      0.00%     65.24% # Type of FU issued
system.cpu1.iq.FU_type_0::SimdShiftAcc              0      0.00%     65.24% # Type of FU issued
system.cpu1.iq.FU_type_0::SimdDiv                   0      0.00%     65.24% # Type of FU issued
system.cpu1.iq.FU_type_0::SimdSqrt                  0      0.00%     65.24% # Type of FU issued
system.cpu1.iq.FU_type_0::SimdFloatAdd              0      0.00%     65.24% # Type of FU issued
system.cpu1.iq.FU_type_0::SimdFloatAlu              0      0.00%     65.24% # Type of FU issued
system.cpu1.iq.FU_type_0::SimdFloatCmp              0      0.00%     65.24% # Type of FU issued
system.cpu1.iq.FU_type_0::SimdFloatCvt              0      0.00%     65.24% # Type of FU issued
system.cpu1.iq.FU_type_0::SimdFloatDiv              0      0.00%     65.24% # Type of FU issued
system.cpu1.iq.FU_type_0::SimdFloatMisc             0      0.00%     65.24% # Type of FU issued
system.cpu1.iq.FU_type_0::SimdFloatMult             0      0.00%     65.24% # Type of FU issued
system.cpu1.iq.FU_type_0::SimdFloatMultAcc            0      0.00%     65.24% # Type of FU issued
system.cpu1.iq.FU_type_0::SimdFloatSqrt             0      0.00%     65.24% # Type of FU issued
system.cpu1.iq.FU_type_0::SimdReduceAdd             0      0.00%     65.24% # Type of FU issued
system.cpu1.iq.FU_type_0::SimdReduceAlu             0      0.00%     65.24% # Type of FU issued
system.cpu1.iq.FU_type_0::SimdReduceCmp             0      0.00%     65.24% # Type of FU issued
system.cpu1.iq.FU_type_0::SimdFloatReduceAdd            0      0.00%     65.24% # Type of FU issued
system.cpu1.iq.FU_type_0::SimdFloatReduceCmp            0      0.00%     65.24% # Type of FU issued
system.cpu1.iq.FU_type_0::SimdAes                   0      0.00%     65.24% # Type of FU issued
system.cpu1.iq.FU_type_0::SimdAesMix                0      0.00%     65.24% # Type of FU issued
system.cpu1.iq.FU_type_0::SimdSha1Hash              0      0.00%     65.24% # Type of FU issued
system.cpu1.iq.FU_type_0::SimdSha1Hash2             0      0.00%     65.24% # Type of FU issued
system.cpu1.iq.FU_type_0::SimdSha256Hash            0      0.00%     65.24% # Type of FU issued
system.cpu1.iq.FU_type_0::SimdSha256Hash2            0      0.00%     65.24% # Type of FU issued
system.cpu1.iq.FU_type_0::SimdShaSigma2             0      0.00%     65.24% # Type of FU issued
system.cpu1.iq.FU_type_0::SimdShaSigma3             0      0.00%     65.24% # Type of FU issued
system.cpu1.iq.FU_type_0::SimdPredAlu               0      0.00%     65.24% # Type of FU issued
system.cpu1.iq.FU_type_0::MemRead            19163640     29.51%     94.75% # Type of FU issued
system.cpu1.iq.FU_type_0::MemWrite            3407498      5.25%    100.00% # Type of FU issued
system.cpu1.iq.FU_type_0::FloatMemRead              0      0.00%    100.00% # Type of FU issued
system.cpu1.iq.FU_type_0::FloatMemWrite            12      0.00%    100.00% # Type of FU issued
system.cpu1.iq.FU_type_0::IprAccess                 0      0.00%    100.00% # Type of FU issued
system.cpu1.iq.FU_type_0::InstPrefetch              0      0.00%    100.00% # Type of FU issued
system.cpu1.iq.FU_type_0::total              64930981                       # Type of FU issued
system.cpu1.iq.fp_alu_accesses                     14                       # Number of floating point alu accesses
system.cpu1.iq.fp_inst_queue_reads                 26                       # Number of floating instruction queue reads
system.cpu1.iq.fp_inst_queue_wakeup_accesses           12                       # Number of floating instruction queue wakeup accesses
system.cpu1.iq.fp_inst_queue_writes                12                       # Number of floating instruction queue writes
system.cpu1.iq.fu_busy_cnt                    1857265                       # FU busy when requested
system.cpu1.iq.fu_busy_rate                  0.028604                       # FU busy rate (busy events/executed inst)
system.cpu1.iq.fu_full::No_OpClass                  0      0.00%      0.00% # attempts to use FU when none available
system.cpu1.iq.fu_full::IntAlu                 315999     17.01%     17.01% # attempts to use FU when none available
system.cpu1.iq.fu_full::IntMult                     0      0.00%     17.01% # attempts to use FU when none available
system.cpu1.iq.fu_full::IntDiv                      0      0.00%     17.01% # attempts to use FU when none available
system.cpu1.iq.fu_full::FloatAdd                    0      0.00%     17.01% # attempts to use FU when none available
system.cpu1.iq.fu_full::FloatCmp                    0      0.00%     17.01% # attempts to use FU when none available
system.cpu1.iq.fu_full::FloatCvt                    0      0.00%     17.01% # attempts to use FU when none available
system.cpu1.iq.fu_full::FloatMult                   0      0.00%     17.01% # attempts to use FU when none available
system.cpu1.iq.fu_full::FloatMultAcc                0      0.00%     17.01% # attempts to use FU when none available
system.cpu1.iq.fu_full::FloatDiv                    0      0.00%     17.01% # attempts to use FU when none available
system.cpu1.iq.fu_full::FloatMisc                   0      0.00%     17.01% # attempts to use FU when none available
system.cpu1.iq.fu_full::FloatSqrt                   0      0.00%     17.01% # attempts to use FU when none available
system.cpu1.iq.fu_full::SimdAdd                     0      0.00%     17.01% # attempts to use FU when none available
system.cpu1.iq.fu_full::SimdAddAcc                  0      0.00%     17.01% # attempts to use FU when none available
system.cpu1.iq.fu_full::SimdAlu                     0      0.00%     17.01% # attempts to use FU when none available
system.cpu1.iq.fu_full::SimdCmp                     0      0.00%     17.01% # attempts to use FU when none available
system.cpu1.iq.fu_full::SimdCvt                     0      0.00%     17.01% # attempts to use FU when none available
system.cpu1.iq.fu_full::SimdMisc                    0      0.00%     17.01% # attempts to use FU when none available
system.cpu1.iq.fu_full::SimdMult                    0      0.00%     17.01% # attempts to use FU when none available
system.cpu1.iq.fu_full::SimdMultAcc                 0      0.00%     17.01% # attempts to use FU when none available
system.cpu1.iq.fu_full::SimdShift                   0      0.00%     17.01% # attempts to use FU when none available
system.cpu1.iq.fu_full::SimdShiftAcc                0      0.00%     17.01% # attempts to use FU when none available
system.cpu1.iq.fu_full::SimdDiv                     0      0.00%     17.01% # attempts to use FU when none available
system.cpu1.iq.fu_full::SimdSqrt                    0      0.00%     17.01% # attempts to use FU when none available
system.cpu1.iq.fu_full::SimdFloatAdd                0      0.00%     17.01% # attempts to use FU when none available
system.cpu1.iq.fu_full::SimdFloatAlu                0      0.00%     17.01% # attempts to use FU when none available
system.cpu1.iq.fu_full::SimdFloatCmp                0      0.00%     17.01% # attempts to use FU when none available
system.cpu1.iq.fu_full::SimdFloatCvt                0      0.00%     17.01% # attempts to use FU when none available
system.cpu1.iq.fu_full::SimdFloatDiv                0      0.00%     17.01% # attempts to use FU when none available
system.cpu1.iq.fu_full::SimdFloatMisc               0      0.00%     17.01% # attempts to use FU when none available
system.cpu1.iq.fu_full::SimdFloatMult               0      0.00%     17.01% # attempts to use FU when none available
system.cpu1.iq.fu_full::SimdFloatMultAcc            0      0.00%     17.01% # attempts to use FU when none available
system.cpu1.iq.fu_full::SimdFloatSqrt               0      0.00%     17.01% # attempts to use FU when none available
system.cpu1.iq.fu_full::SimdReduceAdd               0      0.00%     17.01% # attempts to use FU when none available
system.cpu1.iq.fu_full::SimdReduceAlu               0      0.00%     17.01% # attempts to use FU when none available
system.cpu1.iq.fu_full::SimdReduceCmp               0      0.00%     17.01% # attempts to use FU when none available
system.cpu1.iq.fu_full::SimdFloatReduceAdd            0      0.00%     17.01% # attempts to use FU when none available
system.cpu1.iq.fu_full::SimdFloatReduceCmp            0      0.00%     17.01% # attempts to use FU when none available
system.cpu1.iq.fu_full::SimdAes                     0      0.00%     17.01% # attempts to use FU when none available
system.cpu1.iq.fu_full::SimdAesMix                  0      0.00%     17.01% # attempts to use FU when none available
system.cpu1.iq.fu_full::SimdSha1Hash                0      0.00%     17.01% # attempts to use FU when none available
system.cpu1.iq.fu_full::SimdSha1Hash2               0      0.00%     17.01% # attempts to use FU when none available
system.cpu1.iq.fu_full::SimdSha256Hash              0      0.00%     17.01% # attempts to use FU when none available
system.cpu1.iq.fu_full::SimdSha256Hash2             0      0.00%     17.01% # attempts to use FU when none available
system.cpu1.iq.fu_full::SimdShaSigma2               0      0.00%     17.01% # attempts to use FU when none available
system.cpu1.iq.fu_full::SimdShaSigma3               0      0.00%     17.01% # attempts to use FU when none available
system.cpu1.iq.fu_full::SimdPredAlu                 0      0.00%     17.01% # attempts to use FU when none available
system.cpu1.iq.fu_full::MemRead               1415625     76.22%     93.24% # attempts to use FU when none available
system.cpu1.iq.fu_full::MemWrite               125639      6.76%    100.00% # attempts to use FU when none available
[...]
system.cpu1.dcache.ReadReq_miss_rate::total     0.161586                       # miss rate for ReadReq accesses
system.cpu1.dcache.ReadReq_avg_miss_latency::.cpu1.data 62635.153718                       # average ReadReq miss latency
system.cpu1.dcache.ReadReq_avg_miss_latency::total 62635.153718                       # average ReadReq miss latency
system.cpu1.dcache.ReadReq_mshr_hits::.cpu1.data      1856282                       # number of ReadReq MSHR hits
system.cpu1.dcache.ReadReq_mshr_hits::total      1856282                       # number of ReadReq MSHR hits
system.cpu1.dcache.ReadReq_mshr_misses::.cpu1.data      1117961                       # number of ReadReq MSHR misses
system.cpu1.dcache.ReadReq_mshr_misses::total      1117961                       # number of ReadReq MSHR misses
system.cpu1.dcache.ReadReq_mshr_miss_latency::.cpu1.data  83138194500                       # number of ReadReq MSHR miss cycles
system.cpu1.dcache.ReadReq_mshr_miss_latency::total  83138194500                       # number of ReadReq MSHR miss cycles
system.cpu1.dcache.ReadReq_mshr_miss_rate::.cpu1.data     0.060737                       # mshr miss rate for ReadReq accesses
system.cpu1.dcache.ReadReq_mshr_miss_rate::total     0.060737                       # mshr miss rate for ReadReq accesses
system.cpu1.dcache.ReadReq_avg_mshr_miss_latency::.cpu1.data 74365.916611                       # average ReadReq mshr miss latency
system.cpu1.dcache.ReadReq_avg_mshr_miss_latency::total 74365.916611                       # average ReadReq mshr miss latency
system.cpu1.dcache.WriteReq_hits::.cpu1.data       373340                       # number of WriteReq hits
system.cpu1.dcache.WriteReq_hits::total        373340                       # number of WriteReq hits
system.cpu1.dcache.WriteReq_misses::.cpu1.data       405043                       # number of WriteReq misses
system.cpu1.dcache.WriteReq_misses::total       405043                       # number of WriteReq misses
system.cpu1.dcache.WriteReq_miss_latency::.cpu1.data  27222212000                       # number of WriteReq miss cycles
system.cpu1.dcache.WriteReq_miss_latency::total  27222212000                       # number of WriteReq miss cycles
system.cpu1.dcache.WriteReq_accesses::.cpu1.data       778383                       # number of WriteReq accesses(hits+misses)
system.cpu1.dcache.WriteReq_accesses::total       778383                       # number of WriteReq accesses(hits+misses)
system.cpu1.dcache.WriteReq_miss_rate::.cpu1.data     0.520365                       # miss rate for WriteReq accesses
system.cpu1.dcache.WriteReq_miss_rate::total     0.520365                       # miss rate for WriteReq accesses
system.cpu1.dcache.WriteReq_avg_miss_latency::.cpu1.data 67208.202586                       # average WriteReq miss latency
system.cpu1.dcache.WriteReq_avg_miss_latency::total 67208.202586                       # average WriteReq miss latency
system.cpu1.dcache.WriteReq_mshr_hits::.cpu1.data       365340                       # number of WriteReq MSHR hits
system.cpu1.dcache.WriteReq_mshr_hits::total       365340                       # number of WriteReq MSHR hits
system.cpu1.dcache.WriteReq_mshr_misses::.cpu1.data        39703                       # number of WriteReq MSHR misses
system.cpu1.dcache.WriteReq_mshr_misses::total        39703                       # number of WriteReq MSHR misses
system.cpu1.dcache.WriteReq_mshr_miss_latency::.cpu1.data   2536603500                       # number of WriteReq MSHR miss cycles
system.cpu1.dcache.WriteReq_mshr_miss_latency::total   2536603500                       # number of WriteReq MSHR miss cycles
system.cpu1.dcache.WriteReq_mshr_miss_rate::.cpu1.data     0.051007                       # mshr miss rate for WriteReq accesses
system.cpu1.dcache.WriteReq_mshr_miss_rate::total     0.051007                       # mshr miss rate for WriteReq accesses
system.cpu1.dcache.WriteReq_avg_mshr_miss_latency::.cpu1.data 63889.466791                       # average WriteReq mshr miss latency
system.cpu1.dcache.WriteReq_avg_mshr_miss_latency::total 63889.466791                       # average WriteReq mshr miss latency
system.cpu1.dcache.LoadLockedReq_hits::.cpu1.data       583563                       # number of LoadLockedReq hits
system.cpu1.dcache.LoadLockedReq_hits::total       583563                       # number of LoadLockedReq hits
system.cpu1.dcache.LoadLockedReq_misses::.cpu1.data         7942                       # number of LoadLockedReq misses
system.cpu1.dcache.LoadLockedReq_misses::total         7942                       # number of LoadLockedReq misses
system.cpu1.dcache.LoadLockedReq_miss_latency::.cpu1.data    202467500                       # number of LoadLockedReq miss cycles
system.cpu1.dcache.LoadLockedReq_miss_latency::total    202467500                       # number of LoadLockedReq miss cycles
system.cpu1.dcache.LoadLockedReq_accesses::.cpu1.data       591505                       # number of LoadLockedReq accesses(hits+misses)
system.cpu1.dcache.LoadLockedReq_accesses::total       591505                       # number of LoadLockedReq accesses(hits+misses)
system.cpu1.dcache.LoadLockedReq_miss_rate::.cpu1.data     0.013427                       # miss rate for LoadLockedReq accesses
system.cpu1.dcache.LoadLockedReq_miss_rate::total     0.013427                       # miss rate for LoadLockedReq accesses
system.cpu1.dcache.LoadLockedReq_avg_miss_latency::.cpu1.data 25493.263662                       # average LoadLockedReq miss latency
system.cpu1.dcache.LoadLockedReq_avg_miss_latency::total 25493.263662                       # average LoadLockedReq miss latency
system.cpu1.dcache.LoadLockedReq_mshr_hits::.cpu1.data          102                       # number of LoadLockedReq MSHR hits
system.cpu1.dcache.LoadLockedReq_mshr_hits::total          102                       # number of LoadLockedReq MSHR hits
system.cpu1.dcache.LoadLockedReq_mshr_misses::.cpu1.data         7840                       # number of LoadLockedReq MSHR misses
system.cpu1.dcache.LoadLockedReq_mshr_misses::total         7840                       # number of LoadLockedReq MSHR misses
system.cpu1.dcache.LoadLockedReq_mshr_miss_latency::.cpu1.data    186666500                       # number of LoadLockedReq MSHR miss cycles
system.cpu1.dcache.LoadLockedReq_mshr_miss_latency::total    186666500                       # number of LoadLockedReq MSHR miss cycles
system.cpu1.dcache.LoadLockedReq_mshr_miss_rate::.cpu1.data     0.013254                       # mshr miss rate for LoadLockedReq accesses
system.cpu1.dcache.LoadLockedReq_mshr_miss_rate::total     0.013254                       # mshr miss rate for LoadLockedReq accesses
system.cpu1.dcache.LoadLockedReq_avg_mshr_miss_latency::.cpu1.data 23809.502551                       # average LoadLockedReq mshr miss latency
system.cpu1.dcache.LoadLockedReq_avg_mshr_miss_latency::total 23809.502551                       # average LoadLockedReq mshr miss latency
system.cpu1.dcache.StoreCondReq_hits::.cpu1.data       590997                       # number of StoreCondReq hits
system.cpu1.dcache.StoreCondReq_hits::total       590997                       # number of StoreCondReq hits
system.cpu1.dcache.StoreCondReq_misses::.cpu1.data          345                       # number of StoreCondReq misses
system.cpu1.dcache.StoreCondReq_misses::total          345                       # number of StoreCondReq misses
system.cpu1.dcache.StoreCondReq_miss_latency::.cpu1.data      2950500                       # number of StoreCondReq miss cycles
system.cpu1.dcache.StoreCondReq_miss_latency::total      2950500                       # number of StoreCondReq miss cycles
system.cpu1.dcache.StoreCondReq_accesses::.cpu1.data       591342                       # number of StoreCondReq accesses(hits+misses)
system.cpu1.dcache.StoreCondReq_accesses::total       591342                       # number of StoreCondReq accesses(hits+misses)
system.cpu1.dcache.StoreCondReq_miss_rate::.cpu1.data     0.000583                       # miss rate for StoreCondReq accesses
system.cpu1.dcache.StoreCondReq_miss_rate::total     0.000583                       # miss rate for StoreCondReq accesses
system.cpu1.dcache.StoreCondReq_avg_miss_latency::.cpu1.data  8552.173913                       # average StoreCondReq miss latency
system.cpu1.dcache.StoreCondReq_avg_miss_latency::total  8552.173913                       # average StoreCondReq miss latency
system.cpu1.dcache.StoreCondReq_mshr_misses::.cpu1.data          345                       # number of StoreCondReq MSHR misses
system.cpu1.dcache.StoreCondReq_mshr_misses::total          345                       # number of StoreCondReq MSHR misses
system.cpu1.dcache.StoreCondReq_mshr_miss_latency::.cpu1.data      2605500                       # number of StoreCondReq MSHR miss cycles
system.cpu1.dcache.StoreCondReq_mshr_miss_latency::total      2605500                       # number of StoreCondReq MSHR miss cycles
system.cpu1.dcache.StoreCondReq_mshr_miss_rate::.cpu1.data     0.000583                       # mshr miss rate for StoreCondReq accesses
system.cpu1.dcache.StoreCondReq_mshr_miss_rate::total     0.000583                       # mshr miss rate for StoreCondReq accesses
system.cpu1.dcache.StoreCondReq_avg_mshr_miss_latency::.cpu1.data  7552.173913                       # average StoreCondReq mshr miss latency
system.cpu1.dcache.StoreCondReq_avg_mshr_miss_latency::total  7552.173913                       # average StoreCondReq mshr miss latency
system.cpu1.dcache.SwapReq_hits::.cpu1.data          502                       # number of SwapReq hits
system.cpu1.dcache.SwapReq_hits::total            502                       # number of SwapReq hits
system.cpu1.dcache.SwapReq_misses::.cpu1.data          544                       # number of SwapReq misses
system.cpu1.dcache.SwapReq_misses::total          544                       # number of SwapReq misses
system.cpu1.dcache.SwapReq_miss_latency::.cpu1.data     23118000                       # number of SwapReq miss cycles
system.cpu1.dcache.SwapReq_miss_latency::total     23118000                       # number of SwapReq miss cycles
system.cpu1.dcache.SwapReq_accesses::.cpu1.data         1046                       # number of SwapReq accesses(hits+misses)
system.cpu1.dcache.SwapReq_accesses::total         1046                       # number of SwapReq accesses(hits+misses)
system.cpu1.dcache.SwapReq_miss_rate::.cpu1.data     0.520076                       # miss rate for SwapReq accesses
system.cpu1.dcache.SwapReq_miss_rate::total     0.520076                       # miss rate for SwapReq accesses
system.cpu1.dcache.SwapReq_avg_miss_latency::.cpu1.data 42496.323529                       # average SwapReq miss latency
system.cpu1.dcache.SwapReq_avg_miss_latency::total 42496.323529                       # average SwapReq miss latency
system.cpu1.dcache.SwapReq_mshr_misses::.cpu1.data          544                       # number of SwapReq MSHR misses
system.cpu1.dcache.SwapReq_mshr_misses::total          544                       # number of SwapReq MSHR misses
system.cpu1.dcache.SwapReq_mshr_miss_latency::.cpu1.data     22574000                       # number of SwapReq MSHR miss cycles
system.cpu1.dcache.SwapReq_mshr_miss_latency::total     22574000                       # number of SwapReq MSHR miss cycles
system.cpu1.dcache.SwapReq_mshr_miss_rate::.cpu1.data     0.520076                       # mshr miss rate for SwapReq accesses
system.cpu1.dcache.SwapReq_mshr_miss_rate::total     0.520076                       # mshr miss rate for SwapReq accesses
system.cpu1.dcache.SwapReq_avg_mshr_miss_latency::.cpu1.data 41496.323529                       # average SwapReq mshr miss latency
system.cpu1.dcache.SwapReq_avg_mshr_miss_latency::total 41496.323529                       # average SwapReq mshr miss latency
system.cpu1.dcache.tags.pwrStateResidencyTicks::UNDEFINED 106823131000                       # Cumulative time (in ticks) in various power states
system.cpu1.dcache.tags.tagsinuse           31.786663                       # Cycle average of tags in use
system.cpu1.dcache.tags.total_refs           18149021                       # Total number of references to valid blocks.
system.cpu1.dcache.tags.sampled_refs          1165653                       # Sample count of references to valid blocks.
system.cpu1.dcache.tags.avg_refs            15.569832                       # Average number of references to valid blocks.
system.cpu1.dcache.tags.warmup_cycle                0                       # Cycle when the warmup percentage was hit.
system.cpu1.dcache.tags.occ_blocks::.cpu1.data    31.786663                       # Average occupied blocks per requestor
system.cpu1.dcache.tags.occ_percent::.cpu1.data     0.993333                       # Average percentage of cache occupancy
system.cpu1.dcache.tags.occ_percent::total     0.993333                       # Average percentage of cache occupancy
system.cpu1.dcache.tags.occ_task_id_blocks::1024           27                       # Occupied blocks per task id
system.cpu1.dcache.tags.age_task_id_blocks_1024::1           27                       # Occupied blocks per task id
system.cpu1.dcache.tags.occ_task_id_percent::1024     0.843750                       # Percentage of cache occupancy per task id
system.cpu1.dcache.tags.tag_accesses         41903225                       # Number of tag accesses
system.cpu1.dcache.tags.data_accesses        41903225                       # Number of data accesses
system.cpu_clk_domain.clock                       500                       # Clock period in ticks
system.tol2bus.pwrStateResidencyTicks::UNDEFINED 106823131000                       # Cumulative time (in ticks) in various power states
system.tol2bus.trans_dist::ReadResp           3218462                       # Transaction distribution
system.tol2bus.trans_dist::WritebackDirty       577329                       # Transaction distribution
system.tol2bus.trans_dist::WritebackClean      2990960                       # Transaction distribution
system.tol2bus.trans_dist::CleanEvict         5625231                       # Transaction distribution
system.tol2bus.trans_dist::HardPFReq          2728220                       # Transaction distribution
system.tol2bus.trans_dist::UpgradeReq             977                       # Transaction distribution
system.tol2bus.trans_dist::SCUpgradeReq          1364                       # Transaction distribution
system.tol2bus.trans_dist::UpgradeResp           2341                       # Transaction distribution
system.tol2bus.trans_dist::ReadExReq            92566                       # Transaction distribution
system.tol2bus.trans_dist::ReadExResp           92566                       # Transaction distribution
system.tol2bus.trans_dist::ReadCleanReq        229161                       # Transaction distribution
system.tol2bus.trans_dist::ReadSharedReq      2989302                       # Transaction distribution
system.tol2bus.trans_dist::InvalidateReq          637                       # Transaction distribution
system.tol2bus.trans_dist::InvalidateResp          637                       # Transaction distribution
system.tol2bus.pkt_count_system.cpu0.icache.mem_side::system.l2.cpu_side       672487                       # Packet count per connected master and slave (bytes)
system.tol2bus.pkt_count_system.cpu0.dcache.mem_side::system.l2.cpu_side      5750558                       # Packet count per connected master and slave (bytes)
system.tol2bus.pkt_count_system.cpu1.icache.mem_side::system.l2.cpu_side        14994                       # Packet count per connected master and slave (bytes)
system.tol2bus.pkt_count_system.cpu1.dcache.mem_side::system.l2.cpu_side      3494188                       # Packet count per connected master and slave (bytes)
system.tol2bus.pkt_count::total               9932227                       # Packet count per connected master and slave (bytes)
system.tol2bus.pkt_size_system.cpu0.icache.mem_side::system.l2.cpu_side     28692736                       # Cumulative packet size per connected master and slave (bytes)
system.tol2bus.pkt_size_system.cpu0.dcache.mem_side::system.l2.cpu_side    245166592                       # Cumulative packet size per connected master and slave (bytes)
system.tol2bus.pkt_size_system.cpu1.icache.mem_side::system.l2.cpu_side       639744                       # Cumulative packet size per connected master and slave (bytes)
system.tol2bus.pkt_size_system.cpu1.dcache.mem_side::system.l2.cpu_side    148967552                       # Cumulative packet size per connected master and slave (bytes)
system.tol2bus.pkt_size::total              423466624                       # Cumulative packet size per connected master and slave (bytes)
system.tol2bus.snoops                         8617526                       # Total snoops (count)
system.tol2bus.snoopTraffic                  16809664                       # Total snoop traffic (bytes)
system.tol2bus.snoop_fanout::samples         11927053                       # Request fanout histogram
system.tol2bus.snoop_fanout::mean            0.200632                       # Request fanout histogram
system.tol2bus.snoop_fanout::stdev           0.410635                       # Request fanout histogram
system.tol2bus.snoop_fanout::underflows             0      0.00%      0.00% # Request fanout histogram
system.tol2bus.snoop_fanout::0                9583254     80.35%     80.35% # Request fanout histogram
system.tol2bus.snoop_fanout::1                2294645     19.24%     99.59% # Request fanout histogram
system.tol2bus.snoop_fanout::2                  49154      0.41%    100.00% # Request fanout histogram
system.tol2bus.snoop_fanout::3                      0      0.00%    100.00% # Request fanout histogram
system.tol2bus.snoop_fanout::4                      0      0.00%    100.00% # Request fanout histogram
system.tol2bus.snoop_fanout::5                      0      0.00%    100.00% # Request fanout histogram
system.tol2bus.snoop_fanout::6                      0      0.00%    100.00% # Request fanout histogram
system.tol2bus.snoop_fanout::7                      0      0.00%    100.00% # Request fanout histogram
system.tol2bus.snoop_fanout::8                      0      0.00%    100.00% # Request fanout histogram
system.tol2bus.snoop_fanout::overflows              0      0.00%    100.00% # Request fanout histogram
system.tol2bus.snoop_fanout::min_value              0                       # Request fanout histogram
system.tol2bus.snoop_fanout::max_value              2                       # Request fanout histogram
system.tol2bus.snoop_fanout::total           11927053                       # Request fanout histogram
system.tol2bus.reqLayer0.occupancy         6620101469                       # Layer occupancy (ticks)
system.tol2bus.reqLayer0.utilization              6.2                       # Layer utilization (%)
system.tol2bus.respLayer1.occupancy        2877286347                       # Layer occupancy (ticks)
system.tol2bus.respLayer1.utilization             2.7                       # Layer utilization (%)
system.tol2bus.respLayer0.occupancy         336346792                       # Layer occupancy (ticks)
system.tol2bus.respLayer0.utilization             0.3                       # Layer utilization (%)
system.tol2bus.respLayer3.occupancy        1750125399                       # Layer occupancy (ticks)
system.tol2bus.respLayer3.utilization             1.6                       # Layer utilization (%)
system.tol2bus.respLayer2.occupancy           7522948                       # Layer occupancy (ticks)
system.tol2bus.respLayer2.utilization             0.0                       # Layer utilization (%)

---------- End Simulation Statistics   ----------
