
---------- Begin Simulation Statistics ----------
final_tick                               2198573631000                       # Number of ticks from beginning of simulation (restored from checkpoints and never reset)
host_inst_rate                                  60715                       # Simulator instruction rate (inst/s)
host_mem_usage                                 702200                       # Number of bytes of host memory used
host_op_rate                                    60911                       # Simulator op (including micro ops) rate (op/s)
host_seconds                                 38791.27                       # Real time elapsed on the host
host_tick_rate                               56677015                       # Simulator tick rate (ticks/s)
sim_freq                                 1000000000000                       # Frequency of simulated ticks
sim_insts                                  2355207103                       # Number of instructions simulated
sim_ops                                    2362816006                       # Number of ops (including micro ops) simulated
sim_seconds                                  2.198574                       # Number of seconds simulated
sim_ticks                                2198573631000                       # Number of ticks simulated
system.cpu0.branchPred.BTBCorrect                   0                       # Number of correct BTB predictions (this stat may not work properly.
system.cpu0.branchPred.BTBHitPct            87.349699                       # BTB Hit Percentage
system.cpu0.branchPred.BTBHits              293600561                       # Number of BTB hits
system.cpu0.branchPred.BTBLookups           336120862                       # Number of BTB lookups
system.cpu0.branchPred.RASInCorrect                 0                       # Number of incorrect RAS predictions.
system.cpu0.branchPred.condIncorrect         19089227                       # Number of conditional branches incorrect
system.cpu0.branchPred.condPredicted        459366913                       # Number of conditional branches predicted
system.cpu0.branchPred.indirectHits          38811904                       # Number of indirect target hits.
system.cpu0.branchPred.indirectLookups       39167492                       # Number of indirect predictor lookups.
system.cpu0.branchPred.indirectMisses          355588                       # Number of indirect misses.
system.cpu0.branchPred.lookups              584335718                       # Number of BP lookups
system.cpu0.branchPred.usedRAS                      0                       # Number of times the RAS was used to get a target.
system.cpu0.branchPredindirectMispredicted      3963759                       # Number of mispredicted indirect branches.
system.cpu0.commit.amos                       3801861                       # Number of atomic instructions committed
system.cpu0.commit.branchMispredicts         13554737                       # The number of times a branch was mispredicted
system.cpu0.commit.branches                 555109832                       # Number of branches committed
system.cpu0.commit.bw_lim_events             63272864                       # number cycles where commit BW limit reached
system.cpu0.commit.commitNonSpecStalls       11419471                       # The number of times commit has been forced to stall to communicate backwards
system.cpu0.commit.commitSquashedInsts      107185653                       # The number of squashed insts skipped by commit
system.cpu0.commit.committedInsts          2225131188                       # Number of instructions committed
system.cpu0.commit.committedOps            2228938335                       # Number of ops (including micro ops) committed
system.cpu0.commit.committed_per_cycle::samples   4065971227                       # Number of insts commited each cycle
system.cpu0.commit.committed_per_cycle::mean     0.548193                       # Number of insts commited each cycle
system.cpu0.commit.committed_per_cycle::stdev     1.309312                       # Number of insts commited each cycle
system.cpu0.commit.committed_per_cycle::underflows            0      0.00%      0.00% # Number of insts commited each cycle
system.cpu0.commit.committed_per_cycle::0   2969012630     73.02%     73.02% # Number of insts commited each cycle
system.cpu0.commit.committed_per_cycle::1    675394968     16.61%     89.63% # Number of insts commited each cycle
system.cpu0.commit.committed_per_cycle::2    143773549      3.54%     93.17% # Number of insts commited each cycle
system.cpu0.commit.committed_per_cycle::3    145700007      3.58%     96.75% # Number of insts commited each cycle
system.cpu0.commit.committed_per_cycle::4     40782197      1.00%     97.75% # Number of insts commited each cycle
system.cpu0.commit.committed_per_cycle::5     15638595      0.38%     98.14% # Number of insts commited each cycle
system.cpu0.commit.committed_per_cycle::6      5383346      0.13%     98.27% # Number of insts commited each cycle
system.cpu0.commit.committed_per_cycle::7      7013071      0.17%     98.44% # Number of insts commited each cycle
system.cpu0.commit.committed_per_cycle::8     63272864      1.56%    100.00% # Number of insts commited each cycle
system.cpu0.commit.committed_per_cycle::overflows            0      0.00%    100.00% # Number of insts commited each cycle
system.cpu0.commit.committed_per_cycle::min_value            0                       # Number of insts commited each cycle
system.cpu0.commit.committed_per_cycle::max_value            8                       # Number of insts commited each cycle
system.cpu0.commit.committed_per_cycle::total   4065971227                       # Number of insts commited each cycle
system.cpu0.commit.fp_insts                        46                       # Number of committed floating point instructions.
system.cpu0.commit.function_calls            44169543                       # Number of function calls committed.
system.cpu0.commit.int_insts               2151216956                       # Number of committed integer instructions.
system.cpu0.commit.loads                    691599409                       # Number of loads committed
system.cpu0.commit.membars                    7608875                       # Number of memory barriers committed
system.cpu0.commit.op_class_0::No_OpClass      7608881      0.34%      0.34% # Class of committed instruction
system.cpu0.commit.op_class_0::IntAlu      1239015423     55.59%     55.93% # Class of committed instruction
system.cpu0.commit.op_class_0::IntMult       18316825      0.82%     56.75% # Class of committed instruction
system.cpu0.commit.op_class_0::IntDiv         3801411      0.17%     56.92% # Class of committed instruction
system.cpu0.commit.op_class_0::FloatAdd             0      0.00%     56.92% # Class of committed instruction
system.cpu0.commit.op_class_0::FloatCmp             4      0.00%     56.92% # Class of committed instruction
system.cpu0.commit.op_class_0::FloatCvt            12      0.00%     56.92% # Class of committed instruction
system.cpu0.commit.op_class_0::FloatMult            0      0.00%     56.92% # Class of committed instruction
system.cpu0.commit.op_class_0::FloatMultAcc            0      0.00%     56.92% # Class of committed instruction
system.cpu0.commit.op_class_0::FloatDiv             2      0.00%     56.92% # Class of committed instruction
system.cpu0.commit.op_class_0::FloatMisc            4      0.00%     56.92% # Class of committed instruction
system.cpu0.commit.op_class_0::FloatSqrt            0      0.00%     56.92% # Class of committed instruction
system.cpu0.commit.op_class_0::SimdAdd              0      0.00%     56.92% # Class of committed instruction
system.cpu0.commit.op_class_0::SimdAddAcc            0      0.00%     56.92% # Class of committed instruction
system.cpu0.commit.op_class_0::SimdAlu              0      0.00%     56.92% # Class of committed instruction
system.cpu0.commit.op_class_0::SimdCmp              0      0.00%     56.92% # Class of committed instruction
system.cpu0.commit.op_class_0::SimdCvt              0      0.00%     56.92% # Class of committed instruction
system.cpu0.commit.op_class_0::SimdMisc             0      0.00%     56.92% # Class of committed instruction
system.cpu0.commit.op_class_0::SimdMult             0      0.00%     56.92% # Class of committed instruction
system.cpu0.commit.op_class_0::SimdMultAcc            0      0.00%     56.92% # Class of committed instruction
system.cpu0.commit.op_class_0::SimdShift            0      0.00%     56.92% # Class of committed instruction
system.cpu0.commit.op_class_0::SimdShiftAcc            0      0.00%     56.92% # Class of committed instruction
system.cpu0.commit.op_class_0::SimdDiv              0      0.00%     56.92% # Class of committed instruction
system.cpu0.commit.op_class_0::SimdSqrt             0      0.00%     56.92% # Class of committed instruction
system.cpu0.commit.op_class_0::SimdFloatAdd            0      0.00%     56.92% # Class of committed instruction
system.cpu0.commit.op_class_0::SimdFloatAlu            0      0.00%     56.92% # Class of committed instruction
system.cpu0.commit.op_class_0::SimdFloatCmp            0      0.00%     56.92% # Class of committed instruction
system.cpu0.commit.op_class_0::SimdFloatCvt            0      0.00%     56.92% # Class of committed instruction
system.cpu0.commit.op_class_0::SimdFloatDiv            0      0.00%     56.92% # Class of committed instruction
system.cpu0.commit.op_class_0::SimdFloatMisc            0      0.00%     56.92% # Class of committed instruction
system.cpu0.commit.op_class_0::SimdFloatMult            0      0.00%     56.92% # Class of committed instruction
system.cpu0.commit.op_class_0::SimdFloatMultAcc            0      0.00%     56.92% # Class of committed instruction
system.cpu0.commit.op_class_0::SimdFloatSqrt            0      0.00%     56.92% # Class of committed instruction
system.cpu0.commit.op_class_0::SimdReduceAdd            0      0.00%     56.92% # Class of committed instruction
system.cpu0.commit.op_class_0::SimdReduceAlu            0      0.00%     56.92% # Class of committed instruction
system.cpu0.commit.op_class_0::SimdReduceCmp            0      0.00%     56.92% # Class of committed instruction
system.cpu0.commit.op_class_0::SimdFloatReduceAdd            0      0.00%     56.92% # Class of committed instruction
system.cpu0.commit.op_class_0::SimdFloatReduceCmp            0      0.00%     56.92% # Class of committed instruction
system.cpu0.commit.op_class_0::SimdAes              0      0.00%     56.92% # Class of committed instruction
system.cpu0.commit.op_class_0::SimdAesMix            0      0.00%     56.92% # Class of committed instruction
system.cpu0.commit.op_class_0::SimdSha1Hash            0      0.00%     56.92% # Class of committed instruction
system.cpu0.commit.op_class_0::SimdSha1Hash2            0      0.00%     56.92% # Class of committed instruction
system.cpu0.commit.op_class_0::SimdSha256Hash            0      0.00%     56.92% # Class of committed instruction
system.cpu0.commit.op_class_0::SimdSha256Hash2            0      0.00%     56.92% # Class of committed instruction
system.cpu0.commit.op_class_0::SimdShaSigma2            0      0.00%     56.92% # Class of committed instruction
system.cpu0.commit.op_class_0::SimdShaSigma3            0      0.00%     56.92% # Class of committed instruction
system.cpu0.commit.op_class_0::SimdPredAlu            0      0.00%     56.92% # Class of committed instruction
system.cpu0.commit.op_class_0::MemRead      695401262     31.20%     88.12% # Class of committed instruction
system.cpu0.commit.op_class_0::MemWrite     264794487     11.88%    100.00% # Class of committed instruction
system.cpu0.commit.op_class_0::FloatMemRead            8      0.00%    100.00% # Class of committed instruction
system.cpu0.commit.op_class_0::FloatMemWrite           16      0.00%    100.00% # Class of committed instruction
system.cpu0.commit.op_class_0::IprAccess            0      0.00%    100.00% # Class of committed instruction
system.cpu0.commit.op_class_0::InstPrefetch            0      0.00%    100.00% # Class of committed instruction
system.cpu0.commit.op_class_0::total       2228938335                       # Class of committed instruction
system.cpu0.commit.refs                     960195773                       # Number of memory references committed
system.cpu0.commit.swp_count                        0                       # Number of s/w prefetches committed
system.cpu0.commit.vec_insts                        0                       # Number of committed Vector instructions.
system.cpu0.committedInsts                 2225131188                       # Number of Instructions Simulated
system.cpu0.committedOps                   2228938335                       # Number of Ops (including micro ops) Simulated
system.cpu0.cpi                              1.971292                       # CPI: Cycles Per Instruction
system.cpu0.cpi_total                        1.971292                       # CPI: Total CPI of All Threads
system.cpu0.decode.BlockedCycles            759458929                       # Number of cycles decode is blocked
system.cpu0.decode.BranchMispred              5552370                       # Number of times decode detected a branch misprediction
system.cpu0.decode.BranchResolved           291831476                       # Number of times decode resolved a branch
system.cpu0.decode.DecodedInsts            2368830053                       # Number of instructions handled by decode
system.cpu0.decode.IdleCycles              1664623859                       # Number of cycles decode is idle
system.cpu0.decode.RunCycles               1640635096                       # Number of cycles decode is running
system.cpu0.decode.SquashCycles              13578286                       # Number of cycles decode is squashing
system.cpu0.decode.SquashedInsts             10583015                       # Number of squashed instructions handled by decode
system.cpu0.decode.UnblockCycles             10184865                       # Number of cycles decode is unblocking
system.cpu0.dtb.accesses                            0                       # DTB accesses
system.cpu0.dtb.hits                                0                       # DTB hits
system.cpu0.dtb.misses                              0                       # DTB misses
system.cpu0.dtb.read_accesses                       0                       # DTB read accesses
system.cpu0.dtb.read_hits                           0                       # DTB read hits
system.cpu0.dtb.read_misses                         0                       # DTB read misses
system.cpu0.dtb.write_accesses                      0                       # DTB write accesses
system.cpu0.dtb.write_hits                          0                       # DTB write hits
system.cpu0.dtb.write_misses                        0                       # DTB write misses
system.cpu0.fetch.Branches                  584335718                       # Number of branches that fetch encountered
system.cpu0.fetch.CacheLines                414993163                       # Number of cache lines fetched
system.cpu0.fetch.Cycles                   2413406967                       # Number of cycles fetch has run and was not squashing or blocked
system.cpu0.fetch.IcacheSquashes              8845628                       # Number of outstanding Icache misses that were squashed
system.cpu0.fetch.IcacheWaitRetryStallCycles          127                       # Number of stall cycles due to full MSHR
system.cpu0.fetch.Insts                    2391405988                       # Number of instructions fetch has processed
system.cpu0.fetch.MiscStallCycles                  86                       # Number of cycles fetch has spent waiting on interrupts, or bad addresses, or out of MSHRs
system.cpu0.fetch.PendingTrapStallCycles          454                       # Number of stall cycles due to pending traps
system.cpu0.fetch.SquashCycles               38225698                       # Number of cycles fetch has spent squashing
system.cpu0.fetch.branchRate                 0.133216                       # Number of branch fetches per cycle
system.cpu0.fetch.icacheStallCycles        1655960552                       # Number of cycles fetch is stalled on an Icache miss
system.cpu0.fetch.predictedBranches         332412465                       # Number of branches that fetch has predicted taken
system.cpu0.fetch.rate                       0.545189                       # Number of inst fetches per cycle
system.cpu0.fetch.rateDist::samples        4088481035                       # Number of instructions fetched each cycle (Total)
system.cpu0.fetch.rateDist::mean             0.585844                       # Number of instructions fetched each cycle (Total)
system.cpu0.fetch.rateDist::stdev            0.874071                       # Number of instructions fetched each cycle (Total)
system.cpu0.fetch.rateDist::underflows              0      0.00%      0.00% # Number of instructions fetched each cycle (Total)
system.cpu0.fetch.rateDist::0              2376740170     58.13%     58.13% # Number of instructions fetched each cycle (Total)
system.cpu0.fetch.rateDist::1              1270580550     31.08%     89.21% # Number of instructions fetched each cycle (Total)
system.cpu0.fetch.rateDist::2               267274087      6.54%     95.75% # Number of instructions fetched each cycle (Total)
system.cpu0.fetch.rateDist::3               142413613      3.48%     99.23% # Number of instructions fetched each cycle (Total)
system.cpu0.fetch.rateDist::4                13918571      0.34%     99.57% # Number of instructions fetched each cycle (Total)
system.cpu0.fetch.rateDist::5                 9583625      0.23%     99.81% # Number of instructions fetched each cycle (Total)
system.cpu0.fetch.rateDist::6                  350996      0.01%     99.81% # Number of instructions fetched each cycle (Total)
system.cpu0.fetch.rateDist::7                 3809416      0.09%     99.91% # Number of instructions fetched each cycle (Total)
system.cpu0.fetch.rateDist::8                 3810007      0.09%    100.00% # Number of instructions fetched each cycle (Total)
system.cpu0.fetch.rateDist::overflows               0      0.00%    100.00% # Number of instructions fetched each cycle (Total)
system.cpu0.fetch.rateDist::min_value               0                       # Number of instructions fetched each cycle (Total)
system.cpu0.fetch.rateDist::max_value               8                       # Number of instructions fetched each cycle (Total)
system.cpu0.fetch.rateDist::total          4088481035                       # Number of instructions fetched each cycle (Total)
system.cpu0.fp_regfile_reads                       40                       # number of floating regfile reads
system.cpu0.fp_regfile_writes                      22                       # number of floating regfile writes
system.cpu0.idleCycles                      297902093                       # Total number of cycles that the CPU has spent unscheduled due to idling
system.cpu0.iew.branchMispredicts            13773521                       # Number of branch mispredicts detected at execute
system.cpu0.iew.exec_branches               566919300                       # Number of branches executed
system.cpu0.iew.exec_nop                            0                       # number of nop insts executed
system.cpu0.iew.exec_rate                    0.528276                       # Inst execution rate
system.cpu0.iew.exec_refs                  1010422135                       # number of memory reference insts executed
system.cpu0.iew.exec_stores                 274617142                       # Number of stores executed
system.cpu0.iew.exec_swp                            0                       # number of swp insts executed
system.cpu0.iew.iewBlockCycles              588519834                       # Number of cycles IEW is blocking
system.cpu0.iew.iewDispLoadInsts            734155902                       # Number of dispatched load instructions
system.cpu0.iew.iewDispNonSpecInsts           3810985                       # Number of dispatched non-speculative instructions
system.cpu0.iew.iewDispSquashedInsts          4372704                       # Number of squashed instructions skipped by dispatch
system.cpu0.iew.iewDispStoreInsts           279456785                       # Number of dispatched store instructions
system.cpu0.iew.iewDispatchedInsts         2336069969                       # Number of instructions dispatched to IQ
system.cpu0.iew.iewExecLoadInsts            735804993                       # Number of load instructions executed
system.cpu0.iew.iewExecSquashedInsts         12712975                       # Number of squashed instructions skipped in execute
system.cpu0.iew.iewExecutedInsts           2317221898                       # Number of executed instructions
system.cpu0.iew.iewIQFullEvents               2505398                       # Number of times the IQ has become full, causing a stall
system.cpu0.iew.iewIdleCycles                       0                       # Number of cycles IEW is idle
system.cpu0.iew.iewLSQFullEvents             17699575                       # Number of times the LSQ has become full, causing a stall
system.cpu0.iew.iewSquashCycles              13578286                       # Number of cycles IEW is squashing
system.cpu0.iew.iewUnblockCycles             24844511                       # Number of cycles IEW is unblocking
system.cpu0.iew.lsq.thread0.blockedLoads            0                       # Number of blocked loads due to partial load-store forwarding
system.cpu0.iew.lsq.thread0.cacheBlocked       338063                       # Number of times an access to memory failed due to the cache being blocked
system.cpu0.iew.lsq.thread0.forwLoads        34707019                       # Number of loads that had data forwarded from stores
system.cpu0.iew.lsq.thread0.ignoredResponses        77378                       # Number of memory responses ignored because the instruction is squashed
system.cpu0.iew.lsq.thread0.invAddrLoads            0                       # Number of loads ignored due to an invalid address
system.cpu0.iew.lsq.thread0.invAddrSwpfs            0                       # Number of software prefetches ignored due to an invalid address
system.cpu0.iew.lsq.thread0.memOrderViolation        26414                       # Number of memory ordering violations
system.cpu0.iew.lsq.thread0.rescheduledLoads      8753499                       # Number of loads that were rescheduled
system.cpu0.iew.lsq.thread0.squashedLoads     42556493                       # Number of loads squashed
system.cpu0.iew.lsq.thread0.squashedStores     10860421                       # Number of stores squashed
system.cpu0.iew.memOrderViolationEvents         26414                       # Number of memory order violations
system.cpu0.iew.predictedNotTakenIncorrect      1999150                       # Number of branches that were predicted not taken incorrectly
system.cpu0.iew.predictedTakenIncorrect      11774371                       # Number of branches that were predicted taken incorrectly
system.cpu0.iew.wb_consumers                951851661                       # num instructions consuming a value
system.cpu0.iew.wb_count                   2296405212                       # cumulative count of insts written-back
system.cpu0.iew.wb_fanout                    0.893079                       # average fanout of values written-back
system.cpu0.iew.wb_producers                850079051                       # num instructions producing a value
system.cpu0.iew.wb_rate                      0.523530                       # insts written-back per cycle
system.cpu0.iew.wb_sent                    2296601552                       # cumulative count of insts sent to commit
system.cpu0.int_regfile_reads              2828198462                       # number of integer regfile reads
system.cpu0.int_regfile_writes             1471640098                       # number of integer regfile writes
system.cpu0.ipc                              0.507282                       # IPC: Instructions Per Cycle
system.cpu0.ipc_total                        0.507282                       # IPC: Total IPC of All Threads
system.cpu0.iq.FU_type_0::No_OpClass          7611914      0.33%      0.33% # Type of FU issued
system.cpu0.iq.FU_type_0::IntAlu           1282313935     55.04%     55.36% # Type of FU issued
system.cpu0.iq.FU_type_0::IntMult            18332290      0.79%     56.15% # Type of FU issued
system.cpu0.iq.FU_type_0::IntDiv              3802552      0.16%     56.31% # Type of FU issued
system.cpu0.iq.FU_type_0::FloatAdd                  0      0.00%     56.31% # Type of FU issued
system.cpu0.iq.FU_type_0::FloatCmp                  4      0.00%     56.31% # Type of FU issued
system.cpu0.iq.FU_type_0::FloatCvt                 12      0.00%     56.31% # Type of FU issued
system.cpu0.iq.FU_type_0::FloatMult                 0      0.00%     56.31% # Type of FU issued
system.cpu0.iq.FU_type_0::FloatMultAcc              0      0.00%     56.31% # Type of FU issued
system.cpu0.iq.FU_type_0::FloatDiv                  2      0.00%     56.31% # Type of FU issued
system.cpu0.iq.FU_type_0::FloatMisc                 4      0.00%     56.31% # Type of FU issued
system.cpu0.iq.FU_type_0::FloatSqrt                 0      0.00%     56.31% # Type of FU issued
system.cpu0.iq.FU_type_0::SimdAdd                   0      0.00%     56.31% # Type of FU issued
system.cpu0.iq.FU_type_0::SimdAddAcc                0      0.00%     56.31% # Type of FU issued
system.cpu0.iq.FU_type_0::SimdAlu                   0      0.00%     56.31% # Type of FU issued
system.cpu0.iq.FU_type_0::SimdCmp                   0      0.00%     56.31% # Type of FU issued
system.cpu0.iq.FU_type_0::SimdCvt                   0      0.00%     56.31% # Type of FU issued
system.cpu0.iq.FU_type_0::SimdMisc                  0      0.00%     56.31% # Type of FU issued
system.cpu0.iq.FU_type_0::SimdMult                  0      0.00%     56.31% # Type of FU issued
system.cpu0.iq.FU_type_0::SimdMultAcc               0      0.00%     56.31% # Type of FU issued
system.cpu0.iq.FU_type_0::SimdShift                 0      0.00%     56.31% # Type of FU issued
system.cpu0.iq.FU_type_0::SimdShiftAcc              0      0.00%     56.31% # Type of FU issued
system.cpu0.iq.FU_type_0::SimdDiv                   0      0.00%     56.31% # Type of FU issued
system.cpu0.iq.FU_type_0::SimdSqrt                  0      0.00%     56.31% # Type of FU issued
system.cpu0.iq.FU_type_0::SimdFloatAdd              0      0.00%     56.31% # Type of FU issued
system.cpu0.iq.FU_type_0::SimdFloatAlu              0      0.00%     56.31% # Type of FU issued
system.cpu0.iq.FU_type_0::SimdFloatCmp              0      0.00%     56.31% # Type of FU issued
system.cpu0.iq.FU_type_0::SimdFloatCvt              0      0.00%     56.31% # Type of FU issued
system.cpu0.iq.FU_type_0::SimdFloatDiv              0      0.00%     56.31% # Type of FU issued
system.cpu0.iq.FU_type_0::SimdFloatMisc             0      0.00%     56.31% # Type of FU issued
system.cpu0.iq.FU_type_0::SimdFloatMult             0      0.00%     56.31% # Type of FU issued
system.cpu0.iq.FU_type_0::SimdFloatMultAcc            0      0.00%     56.31% # Type of FU issued
system.cpu0.iq.FU_type_0::SimdFloatSqrt             0      0.00%     56.31% # Type of FU issued
system.cpu0.iq.FU_type_0::SimdReduceAdd             0      0.00%     56.31% # Type of FU issued
system.cpu0.iq.FU_type_0::SimdReduceAlu             0      0.00%     56.31% # Type of FU issued
system.cpu0.iq.FU_type_0::SimdReduceCmp             0      0.00%     56.31% # Type of FU issued
system.cpu0.iq.FU_type_0::SimdFloatReduceAdd            0      0.00%     56.31% # Type of FU issued
system.cpu0.iq.FU_type_0::SimdFloatReduceCmp            0      0.00%     56.31% # Type of FU issued
system.cpu0.iq.FU_type_0::SimdAes                   0      0.00%     56.31% # Type of FU issued
system.cpu0.iq.FU_type_0::SimdAesMix                0      0.00%     56.31% # Type of FU issued
system.cpu0.iq.FU_type_0::SimdSha1Hash              0      0.00%     56.31% # Type of FU issued
system.cpu0.iq.FU_type_0::SimdSha1Hash2             0      0.00%     56.31% # Type of FU issued
system.cpu0.iq.FU_type_0::SimdSha256Hash            0      0.00%     56.31% # Type of FU issued
system.cpu0.iq.FU_type_0::SimdSha256Hash2            0      0.00%     56.31% # Type of FU issued
system.cpu0.iq.FU_type_0::SimdShaSigma2             0      0.00%     56.31% # Type of FU issued
system.cpu0.iq.FU_type_0::SimdShaSigma3             0      0.00%     56.31% # Type of FU issued
system.cpu0.iq.FU_type_0::SimdPredAlu               0      0.00%     56.31% # Type of FU issued
system.cpu0.iq.FU_type_0::MemRead           743824314     31.92%     88.24% # Type of FU issued
system.cpu0.iq.FU_type_0::MemWrite          274049823     11.76%    100.00% # Type of FU issued
system.cpu0.iq.FU_type_0::FloatMemRead              8      0.00%    100.00% # Type of FU issued
system.cpu0.iq.FU_type_0::FloatMemWrite            16      0.00%    100.00% # Type of FU issued
system.cpu0.iq.FU_type_0::IprAccess                 0      0.00%    100.00% # Type of FU issued
system.cpu0.iq.FU_type_0::InstPrefetch              0      0.00%    100.00% # Type of FU issued
system.cpu0.iq.FU_type_0::total            2329934874                       # Type of FU issued
system.cpu0.iq.fp_alu_accesses                     48                       # Number of floating point alu accesses
system.cpu0.iq.fp_inst_queue_reads                 94                       # Number of floating instruction queue reads
system.cpu0.iq.fp_inst_queue_wakeup_accesses           46                       # Number of floating instruction queue wakeup accesses
system.cpu0.iq.fp_inst_queue_writes               662                       # Number of floating instruction queue writes
system.cpu0.iq.fu_busy_cnt                    5172505                       # FU busy when requested
system.cpu0.iq.fu_busy_rate                  0.002220                       # FU busy rate (busy events/executed inst)
system.cpu0.iq.fu_full::No_OpClass                  0      0.00%      0.00% # attempts to use FU when none available
system.cpu0.iq.fu_full::IntAlu                 987892     19.10%     19.10% # attempts to use FU when none available
system.cpu0.iq.fu_full::IntMult                     1      0.00%     19.10% # attempts to use FU when none available
system.cpu0.iq.fu_full::IntDiv                      0      0.00%     19.10% # attempts to use FU when none available
system.cpu0.iq.fu_full::FloatAdd                    0      0.00%     19.10% # attempts to use FU when none available
system.cpu0.iq.fu_full::FloatCmp                    0      0.00%     19.10% # attempts to use FU when none available
system.cpu0.iq.fu_full::FloatCvt                    0      0.00%     19.10% # attempts to use FU when none available
system.cpu0.iq.fu_full::FloatMult                   0      0.00%     19.10% # attempts to use FU when none available
system.cpu0.iq.fu_full::FloatMultAcc                0      0.00%     19.10% # attempts to use FU when none available
system.cpu0.iq.fu_full::FloatDiv                    0      0.00%     19.10% # attempts to use FU when none available
system.cpu0.iq.fu_full::FloatMisc                   0      0.00%     19.10% # attempts to use FU when none available
system.cpu0.iq.fu_full::FloatSqrt                   0      0.00%     19.10% # attempts to use FU when none available
system.cpu0.iq.fu_full::SimdAdd                     0      0.00%     19.10% # attempts to use FU when none available
system.cpu0.iq.fu_full::SimdAddAcc                  0      0.00%     19.10% # attempts to use FU when none available
system.cpu0.iq.fu_full::SimdAlu                     0      0.00%     19.10% # attempts to use FU when none available
system.cpu0.iq.fu_full::SimdCmp                     0      0.00%     19.10% # attempts to use FU when none available
system.cpu0.iq.fu_full::SimdCvt                     0      0.00%     19.10% # attempts to use FU when none available
system.cpu0.iq.fu_full::SimdMisc                    0      0.00%     19.10% # attempts to use FU when none available
system.cpu0.iq.fu_full::SimdMult                    0      0.00%     19.10% # attempts to use FU when none available
system.cpu0.iq.fu_full::SimdMultAcc                 0      0.00%     19.10% # attempts to use FU when none available
system.cpu0.iq.fu_full::SimdShift                   0      0.00%     19.10% # attempts to use FU when none available
system.cpu0.iq.fu_full::SimdShiftAcc                0      0.00%     19.10% # attempts to use FU when none available
system.cpu0.iq.fu_full::SimdDiv                     0      0.00%     19.10% # attempts to use FU when none available
system.cpu0.iq.fu_full::SimdSqrt                    0      0.00%     19.10% # attempts to use FU when none available
system.cpu0.iq.fu_full::SimdFloatAdd                0      0.00%     19.10% # attempts to use FU when none available
system.cpu0.iq.fu_full::SimdFloatAlu                0      0.00%     19.10% # attempts to use FU when none available
system.cpu0.iq.fu_full::SimdFloatCmp                0      0.00%     19.10% # attempts to use FU when none available
system.cpu0.iq.fu_full::SimdFloatCvt                0      0.00%     19.10% # attempts to use FU when none available
system.cpu0.iq.fu_full::SimdFloatDiv                0      0.00%     19.10% # attempts to use FU when none available
system.cpu0.iq.fu_full::SimdFloatMisc               0      0.00%     19.10% # attempts to use FU when none available
system.cpu0.iq.fu_full::SimdFloatMult               0      0.00%     19.10% # attempts to use FU when none available
system.cpu0.iq.fu_full::SimdFloatMultAcc            0      0.00%     19.10% # attempts to use FU when none available
system.cpu0.iq.fu_full::SimdFloatSqrt               0      0.00%     19.10% # attempts to use FU when none available
system.cpu0.iq.fu_full::SimdReduceAdd               0      0.00%     19.10% # attempts to use FU when none available
system.cpu0.iq.fu_full::SimdReduceAlu               0      0.00%     19.10% # attempts to use FU when none available
system.cpu0.iq.fu_full::SimdReduceCmp               0      0.00%     19.10% # attempts to use FU when none available
system.cpu0.iq.fu_full::SimdFloatReduceAdd            0      0.00%     19.10% # attempts to use FU when none available
system.cpu0.iq.fu_full::SimdFloatReduceCmp            0      0.00%     19.10% # attempts to use FU when none available
system.cpu0.iq.fu_full::SimdAes                     0      0.00%     19.10% # attempts to use FU when none available
system.cpu0.iq.fu_full::SimdAesMix                  0      0.00%     19.10% # attempts to use FU when none available
system.cpu0.iq.fu_full::SimdSha1Hash                0      0.00%     19.10% # attempts to use FU when none available
system.cpu0.iq.fu_full::SimdSha1Hash2               0      0.00%     19.10% # attempts to use FU when none available
system.cpu0.iq.fu_full::SimdSha256Hash              0      0.00%     19.10% # attempts to use FU when none available
system.cpu0.iq.fu_full::SimdSha256Hash2             0      0.00%     19.10% # attempts to use FU when none available
system.cpu0.iq.fu_full::SimdShaSigma2               0      0.00%     19.10% # attempts to use FU when none available
system.cpu0.iq.fu_full::SimdShaSigma3               0      0.00%     19.10% # attempts to use FU when none available
system.cpu0.iq.fu_full::SimdPredAlu                 0      0.00%     19.10% # attempts to use FU when none available
system.cpu0.iq.fu_full::MemRead               3635085     70.28%     89.38% # attempts to use FU when none available
system.cpu0.iq.fu_full::MemWrite               549525     10.62%    100.00% # attempts to use FU when none available
system.cpu0.iq.fu_full::FloatMemRead                0      0.00%    100.00% # attempts to use FU when none available
system.cpu0.iq.fu_full::FloatMemWrite               2      0.00%    100.00% # attempts to use FU when none available
system.cpu0.iq.fu_full::IprAccess                   0      0.00%    100.00% # attempts to use FU when none available
system.cpu0.iq.fu_full::InstPrefetch                0      0.00%    100.00% # attempts to use FU when none available
system.cpu0.iq.int_alu_accesses            2327495417                       # Number of integer alu accesses
system.cpu0.iq.int_inst_queue_reads        8753876102                       # Number of integer instruction queue reads
system.cpu0.iq.int_inst_queue_wakeup_accesses   2296405166                       # Number of integer instruction queue wakeup accesses
system.cpu0.iq.int_inst_queue_writes       2443225742                       # Number of integer instruction queue writes
system.cpu0.iq.iqInstsAdded                2324649529                       # Number of instructions added to the IQ (excludes non-spec)
system.cpu0.iq.iqInstsIssued               2329934874                       # Number of instructions issued
system.cpu0.iq.iqNonSpecInstsAdded           11420440                       # Number of non-speculative instructions added to the IQ
system.cpu0.iq.iqSquashedInstsExamined      107131630                       # Number of squashed instructions iterated over during squash; mainly for profiling
system.cpu0.iq.iqSquashedInstsIssued           352909                       # Number of squashed instructions issued
system.cpu0.iq.iqSquashedNonSpecRemoved           969                       # Number of squashed non-spec instructions that were removed
system.cpu0.iq.iqSquashedOperandsExamined     44412012                       # Number of squashed operands that are examined and possibly removed from graph
system.cpu0.iq.issued_per_cycle::samples   4088481035                       # Number of insts issued each cycle
system.cpu0.iq.issued_per_cycle::mean        0.569878                       # Number of insts issued each cycle
system.cpu0.iq.issued_per_cycle::stdev       0.798761                       # Number of insts issued each cycle
system.cpu0.iq.issued_per_cycle::underflows            0      0.00%      0.00% # Number of insts issued each cycle
system.cpu0.iq.issued_per_cycle::0         2390942286     58.48%     58.48% # Number of insts issued each cycle
system.cpu0.iq.issued_per_cycle::1         1185375368     28.99%     87.47% # Number of insts issued each cycle
system.cpu0.iq.issued_per_cycle::2          424583349     10.38%     97.86% # Number of insts issued each cycle
system.cpu0.iq.issued_per_cycle::3           67183969      1.64%     99.50% # Number of insts issued each cycle
system.cpu0.iq.issued_per_cycle::4           12221614      0.30%     99.80% # Number of insts issued each cycle
system.cpu0.iq.issued_per_cycle::5            5309148      0.13%     99.93% # Number of insts issued each cycle
system.cpu0.iq.issued_per_cycle::6            1995894      0.05%     99.98% # Number of insts issued each cycle
system.cpu0.iq.issued_per_cycle::7             521915      0.01%     99.99% # Number of insts issued each cycle
system.cpu0.iq.issued_per_cycle::8             347492      0.01%    100.00% # Number of insts issued each cycle
system.cpu0.iq.issued_per_cycle::overflows            0      0.00%    100.00% # Number of insts issued each cycle
system.cpu0.iq.issued_per_cycle::min_value            0                       # Number of insts issued each cycle
system.cpu0.iq.issued_per_cycle::max_value            8                       # Number of insts issued each cycle
system.cpu0.iq.issued_per_cycle::total     4088481035                       # Number of insts issued each cycle
system.cpu0.iq.rate                          0.531175                       # Inst issue rate
system.cpu0.iq.vec_alu_accesses                     0                       # Number of vector alu accesses
system.cpu0.iq.vec_inst_queue_reads                 0                       # Number of vector instruction queue reads
system.cpu0.iq.vec_inst_queue_wakeup_accesses            0                       # Number of vector instruction queue wakeup accesses
system.cpu0.iq.vec_inst_queue_writes                0                       # Number of vector instruction queue writes
system.cpu0.itb.accesses                            0                       # DTB accesses
system.cpu0.itb.hits                                0                       # DTB hits
system.cpu0.itb.misses                              0                       # DTB misses
system.cpu0.itb.read_accesses                       0                       # DTB read accesses
system.cpu0.itb.read_hits                           0                       # DTB read hits
system.cpu0.itb.read_misses                         0                       # DTB read misses
system.cpu0.itb.write_accesses                      0                       # DTB write accesses
system.cpu0.itb.write_hits                          0                       # DTB write hits
system.cpu0.itb.write_misses                        0                       # DTB write misses
system.cpu0.memDep0.conflictingLoads         36493132                       # Number of conflicting loads.
system.cpu0.memDep0.conflictingStores         5231562                       # Number of conflicting stores.
system.cpu0.memDep0.insertedLoads           734155902                       # Number of loads inserted to the mem dependence unit.
system.cpu0.memDep0.insertedStores          279456785                       # Number of stores inserted to the mem dependence unit.
system.cpu0.misc_regfile_reads                   2894                       # number of misc regfile reads
system.cpu0.misc_regfile_writes                    22                       # number of misc regfile writes
system.cpu0.numCycles                      4386383128                       # number of cpu cycles simulated
system.cpu0.numWorkItemsCompleted                   0                       # number of work items this cpu completed
system.cpu0.numWorkItemsStarted                     0                       # number of work items this cpu started
system.cpu0.quiesceCycles                    10765368                       # Total number of cycles that CPU has spent quiesced or waiting for an interrupt
system.cpu0.rename.BlockCycles              643184813                       # Number of cycles rename is blocking
system.cpu0.rename.CommittedMaps           1421550322                       # Number of HB maps that are committed
system.cpu0.rename.IQFullEvents              27798330                       # Number of times rename has blocked due to IQ full
system.cpu0.rename.IdleCycles              1680955449                       # Number of cycles rename is idle
system.cpu0.rename.LQFullEvents              45669659                       # Number of times rename has blocked due to LQ full
system.cpu0.rename.ROBFullEvents               102368                       # Number of times rename has blocked due to ROB full
system.cpu0.rename.RenameLookups           2880217267                       # Number of register rename lookups that rename has made
system.cpu0.rename.RenamedInsts            2355360108                       # Number of instructions processed by rename
system.cpu0.rename.RenamedOperands         1513264297                       # Number of destination operands rename has renamed
system.cpu0.rename.RunCycles               1631620484                       # Number of cycles rename is running
system.cpu0.rename.SQFullEvents              44827851                       # Number of times rename has blocked due to SQ full
system.cpu0.rename.SquashCycles              13578286                       # Number of cycles rename is squashing
system.cpu0.rename.UnblockCycles            118906858                       # Number of cycles rename is unblocking
system.cpu0.rename.UndoneMaps                91713967                       # Number of HB maps that are undone due to squashing
system.cpu0.rename.fp_rename_lookups               40                       # Number of floating rename lookups
system.cpu0.rename.int_rename_lookups      2880217227                       # Number of integer rename lookups
system.cpu0.rename.serializeStallCycles        235145                       # count of cycles rename stalled for serializing inst
system.cpu0.rename.serializingInsts              8862                       # count of serializing insts renamed
system.cpu0.rename.skidInsts                 56236861                       # count of insts added to the skid buffer
system.cpu0.rename.tempSerializingInsts          8858                       # count of temporary serializing insts renamed
system.cpu0.rob.rob_reads                  6338785210                       # The number of ROB reads
system.cpu0.rob.rob_writes                 4694810922                       # The number of ROB writes
system.cpu0.timesIdled                       54214322                       # Number of times that the entire CPU went into an idle state and unscheduled itself
system.cpu0.workload.numSyscalls                 2861                       # Number of system calls
system.cpu1.branchPred.BTBCorrect                   0                       # Number of correct BTB predictions (this stat may not work properly.
system.cpu1.branchPred.BTBHitPct            93.712030                       # BTB Hit Percentage
system.cpu1.branchPred.BTBHits               18309330                       # Number of BTB hits
system.cpu1.branchPred.BTBLookups            19537865                       # Number of BTB lookups
system.cpu1.branchPred.RASInCorrect                 0                       # Number of incorrect RAS predictions.
system.cpu1.branchPred.condIncorrect          1782709                       # Number of conditional branches incorrect
system.cpu1.branchPred.condPredicted         33244807                       # Number of conditional branches predicted
system.cpu1.branchPred.indirectHits            919383                       # Number of indirect target hits.
system.cpu1.branchPred.indirectLookups         933507                       # Number of indirect predictor lookups.
system.cpu1.branchPred.indirectMisses           14124                       # Number of indirect misses.
system.cpu1.branchPred.lookups               36444047                       # Number of BP lookups
system.cpu1.branchPred.usedRAS                      0                       # Number of times the RAS was used to get a target.
system.cpu1.branchPredindirectMispredicted        46763                       # Number of mispredicted indirect branches.
system.cpu1.commit.amos                       3801576                       # Number of atomic instructions committed
system.cpu1.commit.branchMispredicts          1381897                       # The number of times a branch was mispredicted
system.cpu1.commit.branches                  29518901                       # Number of branches committed
system.cpu1.commit.bw_lim_events              3528465                       # number cycles where commit BW limit reached
system.cpu1.commit.commitNonSpecStalls       11405409                       # The number of times commit has been forced to stall to communicate backwards
system.cpu1.commit.commitSquashedInsts       16397788                       # The number of squashed insts skipped by commit
system.cpu1.commit.committedInsts           130075915                       # Number of instructions committed
system.cpu1.commit.committedOps             133877671                       # Number of ops (including micro ops) committed
system.cpu1.commit.committed_per_cycle::samples    709798686                       # Number of insts commited each cycle
system.cpu1.commit.committed_per_cycle::mean     0.188614                       # Number of insts commited each cycle
system.cpu1.commit.committed_per_cycle::stdev     0.869287                       # Number of insts commited each cycle
system.cpu1.commit.committed_per_cycle::underflows            0      0.00%      0.00% # Number of insts commited each cycle
system.cpu1.commit.committed_per_cycle::0    655921845     92.41%     92.41% # Number of insts commited each cycle
system.cpu1.commit.committed_per_cycle::1     26316552      3.71%     96.12% # Number of insts commited each cycle
system.cpu1.commit.committed_per_cycle::2      8328265      1.17%     97.29% # Number of insts commited each cycle
system.cpu1.commit.committed_per_cycle::3      8738625      1.23%     98.52% # Number of insts commited each cycle
system.cpu1.commit.committed_per_cycle::4      2436885      0.34%     98.86% # Number of insts commited each cycle
system.cpu1.commit.committed_per_cycle::5       715612      0.10%     98.97% # Number of insts commited each cycle
system.cpu1.commit.committed_per_cycle::6      3551665      0.50%     99.47% # Number of insts commited each cycle
system.cpu1.commit.committed_per_cycle::7       260772      0.04%     99.50% # Number of insts commited each cycle
system.cpu1.commit.committed_per_cycle::8      3528465      0.50%    100.00% # Number of insts commited each cycle
system.cpu1.commit.committed_per_cycle::overflows            0      0.00%    100.00% # Number of insts commited each cycle
system.cpu1.commit.committed_per_cycle::min_value            0                       # Number of insts commited each cycle
system.cpu1.commit.committed_per_cycle::max_value            8                       # Number of insts commited each cycle
system.cpu1.commit.committed_per_cycle::total    709798686                       # Number of insts commited each cycle
system.cpu1.commit.fp_insts                        12                       # Number of committed floating point instructions.
system.cpu1.commit.function_calls             1457325                       # Number of function calls committed.
system.cpu1.commit.int_insts                125281818                       # Number of committed integer instructions.
system.cpu1.commit.loads                     36891599                       # Number of loads committed
system.cpu1.commit.membars                    7603282                       # Number of memory barriers committed
system.cpu1.commit.op_class_0::No_OpClass      7603282      5.68%      5.68% # Class of committed instruction
system.cpu1.commit.op_class_0::IntAlu        77457214     57.86%     63.54% # Class of committed instruction
system.cpu1.commit.op_class_0::IntMult             44      0.00%     63.54% # Class of committed instruction
system.cpu1.commit.op_class_0::IntDiv              88      0.00%     63.54% # Class of committed instruction
system.cpu1.commit.op_class_0::FloatAdd             0      0.00%     63.54% # Class of committed instruction
system.cpu1.commit.op_class_0::FloatCmp             0      0.00%     63.54% # Class of committed instruction
system.cpu1.commit.op_class_0::FloatCvt             0      0.00%     63.54% # Class of committed instruction
system.cpu1.commit.op_class_0::FloatMult            0      0.00%     63.54% # Class of committed instruction
system.cpu1.commit.op_class_0::FloatMultAcc            0      0.00%     63.54% # Class of committed instruction
system.cpu1.commit.op_class_0::FloatDiv             0      0.00%     63.54% # Class of committed instruction
system.cpu1.commit.op_class_0::FloatMisc            0      0.00%     63.54% # Class of committed instruction
system.cpu1.commit.op_class_0::FloatSqrt            0      0.00%     63.54% # Class of committed instruction
system.cpu1.commit.op_class_0::SimdAdd              0      0.00%     63.54% # Class of committed instruction
system.cpu1.commit.op_class_0::SimdAddAcc            0      0.00%     63.54% # Class of committed instruction
system.cpu1.commit.op_class_0::SimdAlu              0      0.00%     63.54% # Class of committed instruction
system.cpu1.commit.op_class_0::SimdCmp              0      0.00%     63.54% # Class of committed instruction
system.cpu1.commit.op_class_0::SimdCvt              0      0.00%     63.54% # Class of committed instruction
system.cpu1.commit.op_class_0::SimdMisc             0      0.00%     63.54% # Class of committed instruction
system.cpu1.commit.op_class_0::SimdMult             0      0.00%     63.54% # Class of committed instruction
system.cpu1.commit.op_class_0::SimdMultAcc            0      0.00%     63.54% # Class of committed instruction
system.cpu1.commit.op_class_0::SimdShift            0      0.00%     63.54% # Class of committed instruction
system.cpu1.commit.op_class_0::SimdShiftAcc            0      0.00%     63.54% # Class of committed instruction
system.cpu1.commit.op_class_0::SimdDiv              0      0.00%     63.54% # Class of committed instruction
system.cpu1.commit.op_class_0::SimdSqrt             0      0.00%     63.54% # Class of committed instruction
system.cpu1.commit.op_class_0::SimdFloatAdd            0      0.00%     63.54% # Class of committed instruction
system.cpu1.commit.op_class_0::SimdFloatAlu            0      0.00%     63.54% # Class of committed instruction
system.cpu1.commit.op_class_0::SimdFloatCmp            0      0.00%     63.54% # Class of committed instruction
system.cpu1.commit.op_class_0::SimdFloatCvt            0      0.00%     63.54% # Class of committed instruction
system.cpu1.commit.op_class_0::SimdFloatDiv            0      0.00%     63.54% # Class of committed instruction
system.cpu1.commit.op_class_0::SimdFloatMisc            0      0.00%     63.54% # Class of committed instruction
system.cpu1.commit.op_class_0::SimdFloatMult            0      0.00%     63.54% # Class of committed instruction
system.cpu1.commit.op_class_0::SimdFloatMultAcc            0      0.00%     63.54% # Class of committed instruction
system.cpu1.commit.op_class_0::SimdFloatSqrt            0      0.00%     63.54% # Class of committed instruction
system.cpu1.commit.op_class_0::SimdReduceAdd            0      0.00%     63.54% # Class of committed instruction
system.cpu1.commit.op_class_0::SimdReduceAlu            0      0.00%     63.54% # Class of committed instruction
system.cpu1.commit.op_class_0::SimdReduceCmp            0      0.00%     63.54% # Class of committed instruction
system.cpu1.commit.op_class_0::SimdFloatReduceAdd            0      0.00%     63.54% # Class of committed instruction
system.cpu1.commit.op_class_0::SimdFloatReduceCmp            0      0.00%     63.54% # Class of committed instruction
system.cpu1.commit.op_class_0::SimdAes              0      0.00%     63.54% # Class of committed instruction
system.cpu1.commit.op_class_0::SimdAesMix            0      0.00%     63.54% # Class of committed instruction
system.cpu1.commit.op_class_0::SimdSha1Hash            0      0.00%     63.54% # Class of committed instruction
system.cpu1.commit.op_class_0::SimdSha1Hash2            0      0.00%     63.54% # Class of committed instruction
system.cpu1.commit.op_class_0::SimdSha256Hash            0      0.00%     63.54% # Class of committed instruction
system.cpu1.commit.op_class_0::SimdSha256Hash2            0      0.00%     63.54% # Class of committed instruction
system.cpu1.commit.op_class_0::SimdShaSigma2            0      0.00%     63.54% # Class of committed instruction
system.cpu1.commit.op_class_0::SimdShaSigma3            0      0.00%     63.54% # Class of committed instruction
system.cpu1.commit.op_class_0::SimdPredAlu            0      0.00%     63.54% # Class of committed instruction
system.cpu1.commit.op_class_0::MemRead       40693175     30.40%     93.93% # Class of committed instruction
system.cpu1.commit.op_class_0::MemWrite       8123856      6.07%    100.00% # Class of committed instruction
system.cpu1.commit.op_class_0::FloatMemRead            0      0.00%    100.00% # Class of committed instruction
system.cpu1.commit.op_class_0::FloatMemWrite           12      0.00%    100.00% # Class of committed instruction
system.cpu1.commit.op_class_0::IprAccess            0      0.00%    100.00% # Class of committed instruction
system.cpu1.commit.op_class_0::InstPrefetch            0      0.00%    100.00% # Class of committed instruction
system.cpu1.commit.op_class_0::total        133877671                       # Class of committed instruction
system.cpu1.commit.refs                      48817043                       # Number of memory references committed
system.cpu1.commit.swp_count                        0                       # Number of s/w prefetches committed
system.cpu1.commit.vec_insts                        0                       # Number of committed Vector instructions.
system.cpu1.committedInsts                  130075915                       # Number of Instructions Simulated
system.cpu1.committedOps                    133877671                       # Number of Ops (including micro ops) Simulated
system.cpu1.cpi                              5.490136                       # CPI: Cycles Per Instruction
system.cpu1.cpi_total                        5.490136                       # CPI: Total CPI of All Threads
system.cpu1.decode.BlockedCycles            634706881                       # Number of cycles decode is blocked
system.cpu1.decode.BranchMispred               418133                       # Number of times decode detected a branch misprediction
system.cpu1.decode.BranchResolved            17527151                       # Number of times decode resolved a branch
system.cpu1.decode.DecodedInsts             156426609                       # Number of instructions handled by decode
system.cpu1.decode.IdleCycles                17987518                       # Number of cycles decode is idle
system.cpu1.decode.RunCycles                 49889347                       # Number of cycles decode is running
system.cpu1.decode.SquashCycles               1383805                       # Number of cycles decode is squashing
system.cpu1.decode.SquashedInsts              1135553                       # Number of squashed instructions handled by decode
system.cpu1.decode.UnblockCycles              8814046                       # Number of cycles decode is unblocking
system.cpu1.dtb.accesses                            0                       # DTB accesses
system.cpu1.dtb.hits                                0                       # DTB hits
system.cpu1.dtb.misses                              0                       # DTB misses
system.cpu1.dtb.read_accesses                       0                       # DTB read accesses
system.cpu1.dtb.read_hits                           0                       # DTB read hits
system.cpu1.dtb.read_misses                         0                       # DTB read misses
system.cpu1.dtb.write_accesses                      0                       # DTB write accesses
system.cpu1.dtb.write_hits                          0                       # DTB write hits
system.cpu1.dtb.write_misses                        0                       # DTB write misses
system.cpu1.fetch.Branches                   36444047                       # Number of branches that fetch encountered
system.cpu1.fetch.CacheLines                 19894864                       # Number of cache lines fetched
system.cpu1.fetch.Cycles                    689833266                       # Number of cycles fetch has run and was not squashing or blocked
system.cpu1.fetch.IcacheSquashes               148207                       # Number of outstanding Icache misses that were squashed
system.cpu1.fetch.IcacheWaitRetryStallCycles           16                       # Number of stall cycles due to full MSHR
system.cpu1.fetch.Insts                     158327882                       # Number of instructions fetch has processed
system.cpu1.fetch.MiscStallCycles                   2                       # Number of cycles fetch has spent waiting on interrupts, or bad addresses, or out of MSHRs
system.cpu1.fetch.SquashCycles                3569234                       # Number of cycles fetch has spent squashing
system.cpu1.fetch.branchRate                 0.051032                       # Number of branch fetches per cycle
system.cpu1.fetch.icacheStallCycles          21163696                       # Number of cycles fetch is stalled on an Icache miss
system.cpu1.fetch.predictedBranches          19228713                       # Number of branches that fetch has predicted taken
system.cpu1.fetch.rate                       0.221706                       # Number of inst fetches per cycle
system.cpu1.fetch.rateDist::samples         712781597                       # Number of instructions fetched each cycle (Total)
system.cpu1.fetch.rateDist::mean             0.227461                       # Number of instructions fetched each cycle (Total)
system.cpu1.fetch.rateDist::stdev            0.666122                       # Number of instructions fetched each cycle (Total)
system.cpu1.fetch.rateDist::underflows              0      0.00%      0.00% # Number of instructions fetched each cycle (Total)
system.cpu1.fetch.rateDist::0               615687003     86.38%     86.38% # Number of instructions fetched each cycle (Total)
system.cpu1.fetch.rateDist::1                55094174      7.73%     94.11% # Number of instructions fetched each cycle (Total)
system.cpu1.fetch.rateDist::2                25605511      3.59%     97.70% # Number of instructions fetched each cycle (Total)
system.cpu1.fetch.rateDist::3                10485319      1.47%     99.17% # Number of instructions fetched each cycle (Total)
system.cpu1.fetch.rateDist::4                 5247353      0.74%     99.91% # Number of instructions fetched each cycle (Total)
system.cpu1.fetch.rateDist::5                  595627      0.08%     99.99% # Number of instructions fetched each cycle (Total)
system.cpu1.fetch.rateDist::6                   65723      0.01%    100.00% # Number of instructions fetched each cycle (Total)
system.cpu1.fetch.rateDist::7                     157      0.00%    100.00% # Number of instructions fetched each cycle (Total)
system.cpu1.fetch.rateDist::8                     730      0.00%    100.00% # Number of instructions fetched each cycle (Total)
system.cpu1.fetch.rateDist::overflows               0      0.00%    100.00% # Number of instructions fetched each cycle (Total)
system.cpu1.fetch.rateDist::min_value               0                       # Number of instructions fetched each cycle (Total)
system.cpu1.fetch.rateDist::max_value               8                       # Number of instructions fetched each cycle (Total)
system.cpu1.fetch.rateDist::total           712781597                       # Number of instructions fetched each cycle (Total)
system.cpu1.fp_regfile_reads                       12                       # number of floating regfile reads
system.cpu1.idleCycles                        1352849                       # Total number of cycles that the CPU has spent unscheduled due to idling
system.cpu1.iew.branchMispredicts             1519614                       # Number of branch mispredicts detected at execute
system.cpu1.iew.exec_branches                31744538                       # Number of branches executed
system.cpu1.iew.exec_nop                            0                       # number of nop insts executed
system.cpu1.iew.exec_rate                    0.203551                       # Inst execution rate
system.cpu1.iew.exec_refs                    52462385                       # number of memory reference insts executed
system.cpu1.iew.exec_stores                  12358327                       # Number of stores executed
system.cpu1.iew.exec_swp                            0                       # number of swp insts executed
system.cpu1.iew.iewBlockCycles              532125483                       # Number of cycles IEW is blocking
system.cpu1.iew.iewDispLoadInsts             40472065                       # Number of dispatched load instructions
system.cpu1.iew.iewDispNonSpecInsts           3802250                       # Number of dispatched non-speculative instructions
system.cpu1.iew.iewDispSquashedInsts          1202305                       # Number of squashed instructions skipped by dispatch
system.cpu1.iew.iewDispStoreInsts            12708473                       # Number of dispatched store instructions
system.cpu1.iew.iewDispatchedInsts          150261488                       # Number of instructions dispatched to IQ
system.cpu1.iew.iewExecLoadInsts             40104058                       # Number of load instructions executed
system.cpu1.iew.iewExecSquashedInsts          1505771                       # Number of squashed instructions skipped in execute
system.cpu1.iew.iewExecutedInsts            145362730                       # Number of executed instructions
system.cpu1.iew.iewIQFullEvents               2323261                       # Number of times the IQ has become full, causing a stall
system.cpu1.iew.iewIdleCycles                       0                       # Number of cycles IEW is idle
system.cpu1.iew.iewLSQFullEvents              5217509                       # Number of times the LSQ has become full, causing a stall
system.cpu1.iew.iewSquashCycles               1383805                       # Number of cycles IEW is squashing
system.cpu1.iew.iewUnblockCycles             12271743                       # Number of cycles IEW is unblocking
system.cpu1.iew.lsq.thread0.blockedLoads            0                       # Number of blocked loads due to partial load-store forwarding
system.cpu1.iew.lsq.thread0.cacheBlocked       109426                       # Number of times an access to memory failed due to the cache being blocked
system.cpu1.iew.lsq.thread0.forwLoads         1137097                       # Number of loads that had data forwarded from stores
system.cpu1.iew.lsq.thread0.ignoredResponses        35645                       # Number of memory responses ignored because the instruction is squashed
system.cpu1.iew.lsq.thread0.invAddrLoads            0                       # Number of loads ignored due to an invalid address
system.cpu1.iew.lsq.thread0.invAddrSwpfs            0                       # Number of software prefetches ignored due to an invalid address
system.cpu1.iew.lsq.thread0.memOrderViolation         2266                       # Number of memory ordering violations
system.cpu1.iew.lsq.thread0.rescheduledLoads         5958                       # Number of loads that were rescheduled
system.cpu1.iew.lsq.thread0.squashedLoads      3580466                       # Number of loads squashed
system.cpu1.iew.lsq.thread0.squashedStores       783029                       # Number of stores squashed
system.cpu1.iew.memOrderViolationEvents          2266                       # Number of memory order violations
system.cpu1.iew.predictedNotTakenIncorrect       523405                       # Number of branches that were predicted not taken incorrectly
system.cpu1.iew.predictedTakenIncorrect        996209                       # Number of branches that were predicted taken incorrectly
system.cpu1.iew.wb_consumers                 84471085                       # num instructions consuming a value
system.cpu1.iew.wb_count                    143985228                       # cumulative count of insts written-back
system.cpu1.iew.wb_fanout                    0.846780                       # average fanout of values written-back
system.cpu1.iew.wb_producers                 71528384                       # num instructions producing a value
system.cpu1.iew.wb_rate                      0.201622                       # insts written-back per cycle
system.cpu1.iew.wb_sent                     144027293                       # cumulative count of insts sent to commit
system.cpu1.int_regfile_reads               180657656                       # number of integer regfile reads
system.cpu1.int_regfile_writes               96899218                       # number of integer regfile writes
system.cpu1.ipc                              0.182145                       # IPC: Instructions Per Cycle
system.cpu1.ipc_total                        0.182145                       # IPC: Total IPC of All Threads
system.cpu1.iq.FU_type_0::No_OpClass          7603382      5.18%      5.18% # Type of FU issued
system.cpu1.iq.FU_type_0::IntAlu             86358993     58.80%     63.98% # Type of FU issued
system.cpu1.iq.FU_type_0::IntMult                  46      0.00%     63.98% # Type of FU issued
system.cpu1.iq.FU_type_0::IntDiv                   88      0.00%     63.98% # Type of FU issued
system.cpu1.iq.FU_type_0::FloatAdd                  0      0.00%     63.98% # Type of FU issued
system.cpu1.iq.FU_type_0::FloatCmp                  0      0.00%     63.98% # Type of FU issued
system.cpu1.iq.FU_type_0::FloatCvt                  0      0.00%     63.98% # Type of FU issued
system.cpu1.iq.FU_type_0::FloatMult                 0      0.00%     63.98% # Type of FU issued
system.cpu1.iq.FU_type_0::FloatMultAcc              0      0.00%     63.98% # Type of FU issued
system.cpu1.iq.FU_type_0::FloatDiv                  0      0.00%     63.98% # Type of FU issued
system.cpu1.iq.FU_type_0::FloatMisc                 0      0.00%     63.98% # Type of FU issued
system.cpu1.iq.FU_type_0::FloatSqrt                 0      0.00%     63.98% # Type of FU issued
system.cpu1.iq.FU_type_0::SimdAdd                   0      0.00%     63.98% # Type of FU issued
system.cpu1.iq.FU_type_0::SimdAddAcc                0      0.00%     63.98% # Type of FU issued
system.cpu1.iq.FU_type_0::SimdAlu                   0      0.00%     63.98% # Type of FU issued
system.cpu1.iq.FU_type_0::SimdCmp                   0      0.00%     63.98% # Type of FU issued
system.cpu1.iq.FU_type_0::SimdCvt                   0      0.00%     63.98% # Type of FU issued
system.cpu1.iq.FU_type_0::SimdMisc                  0      0.00%     63.98% # Type of FU issued
system.cpu1.iq.FU_type_0::SimdMult                  0      0.00%     63.98% # Type of FU issued
system.cpu1.iq.FU_type_0::SimdMultAcc               0      0.00%     63.98% # Type of FU issued
system.cpu1.iq.FU_type_0::SimdShift                 0      0.00%     63.98% # Type of FU issued
system.cpu1.iq.FU_type_0::SimdShiftAcc              0      0.00%     63.98% # Type of FU issued
system.cpu1.iq.FU_type_0::SimdDiv                   0      0.00%     63.98% # Type of FU issued
system.cpu1.iq.FU_type_0::SimdSqrt                  0      0.00%     63.98% # Type of FU issued
system.cpu1.iq.FU_type_0::SimdFloatAdd              0      0.00%     63.98% # Type of FU issued
system.cpu1.iq.FU_type_0::SimdFloatAlu              0      0.00%     63.98% # Type of FU issued
system.cpu1.iq.FU_type_0::SimdFloatCmp              0      0.00%     63.98% # Type of FU issued
system.cpu1.iq.FU_type_0::SimdFloatCvt              0      0.00%     63.98% # Type of FU issued
system.cpu1.iq.FU_type_0::SimdFloatDiv              0      0.00%     63.98% # Type of FU issued
system.cpu1.iq.FU_type_0::SimdFloatMisc             0      0.00%     63.98% # Type of FU issued
system.cpu1.iq.FU_type_0::SimdFloatMult             0      0.00%     63.98% # Type of FU issued
system.cpu1.iq.FU_type_0::SimdFloatMultAcc            0      0.00%     63.98% # Type of FU issued
system.cpu1.iq.FU_type_0::SimdFloatSqrt             0      0.00%     63.98% # Type of FU issued
system.cpu1.iq.FU_type_0::SimdReduceAdd             0      0.00%     63.98% # Type of FU issued
system.cpu1.iq.FU_type_0::SimdReduceAlu             0      0.00%     63.98% # Type of FU issued
system.cpu1.iq.FU_type_0::SimdReduceCmp             0      0.00%     63.98% # Type of FU issued
system.cpu1.iq.FU_type_0::SimdFloatReduceAdd            0      0.00%     63.98% # Type of FU issued
system.cpu1.iq.FU_type_0::SimdFloatReduceCmp            0      0.00%     63.98% # Type of FU issued
system.cpu1.iq.FU_type_0::SimdAes                   0      0.00%     63.98% # Type of FU issued
system.cpu1.iq.FU_type_0::SimdAesMix                0      0.00%     63.98% # Type of FU issued
system.cpu1.iq.FU_type_0::SimdSha1Hash              0      0.00%     63.98% # Type of FU issued
system.cpu1.iq.FU_type_0::SimdSha1Hash2             0      0.00%     63.98% # Type of FU issued
system.cpu1.iq.FU_type_0::SimdSha256Hash            0      0.00%     63.98% # Type of FU issued
system.cpu1.iq.FU_type_0::SimdSha256Hash2            0      0.00%     63.98% # Type of FU issued
system.cpu1.iq.FU_type_0::SimdShaSigma2             0      0.00%     63.98% # Type of FU issued
system.cpu1.iq.FU_type_0::SimdShaSigma3             0      0.00%     63.98% # Type of FU issued
system.cpu1.iq.FU_type_0::SimdPredAlu               0      0.00%     63.98% # Type of FU issued
system.cpu1.iq.FU_type_0::MemRead            44294974     30.16%     94.14% # Type of FU issued
system.cpu1.iq.FU_type_0::MemWrite            8611006      5.86%    100.00% # Type of FU issued
system.cpu1.iq.FU_type_0::FloatMemRead              0      0.00%    100.00% # Type of FU issued
system.cpu1.iq.FU_type_0::FloatMemWrite            12      0.00%    100.00% # Type of FU issued
system.cpu1.iq.FU_type_0::IprAccess                 0      0.00%    100.00% # Type of FU issued
system.cpu1.iq.FU_type_0::InstPrefetch              0      0.00%    100.00% # Type of FU issued
system.cpu1.iq.FU_type_0::total             146868501                       # Type of FU issued
system.cpu1.iq.fp_alu_accesses                     14                       # Number of floating point alu accesses
system.cpu1.iq.fp_inst_queue_reads                 26                       # Number of floating instruction queue reads
system.cpu1.iq.fp_inst_queue_wakeup_accesses           12                       # Number of floating instruction queue wakeup accesses
system.cpu1.iq.fp_inst_queue_writes                12                       # Number of floating instruction queue writes
system.cpu1.iq.fu_busy_cnt                    4392620                       # FU busy when requested
system.cpu1.iq.fu_busy_rate                  0.029909                       # FU busy rate (busy events/executed inst)
system.cpu1.iq.fu_full::No_OpClass                  0      0.00%      0.00% # attempts to use FU when none available
system.cpu1.iq.fu_full::IntAlu                 850828     19.37%     19.37% # attempts to use FU when none available
system.cpu1.iq.fu_full::IntMult                     0      0.00%     19.37% # attempts to use FU when none available
system.cpu1.iq.fu_full::IntDiv                      0      0.00%     19.37% # attempts to use FU when none available
system.cpu1.iq.fu_full::FloatAdd                    0      0.00%     19.37% # attempts to use FU when none available
system.cpu1.iq.fu_full::FloatCmp                    0      0.00%     19.37% # attempts to use FU when none available
system.cpu1.iq.fu_full::FloatCvt                    0      0.00%     19.37% # attempts to use FU when none available
system.cpu1.iq.fu_full::FloatMult                   0      0.00%     19.37% # attempts to use FU when none available
system.cpu1.iq.fu_full::FloatMultAcc                0      0.00%     19.37% # attempts to use FU when none available
system.cpu1.iq.fu_full::FloatDiv                    0      0.00%     19.37% # attempts to use FU when none available
system.cpu1.iq.fu_full::FloatMisc                   0      0.00%     19.37% # attempts to use FU when none available
system.cpu1.iq.fu_full::FloatSqrt                   0      0.00%     19.37% # attempts to use FU when none available
system.cpu1.iq.fu_full::SimdAdd                     0      0.00%     19.37% # attempts to use FU when none available
system.cpu1.iq.fu_full::SimdAddAcc                  0      0.00%     19.37% # attempts to use FU when none available
system.cpu1.iq.fu_full::SimdAlu                     0      0.00%     19.37% # attempts to use FU when none available
system.cpu1.iq.fu_full::SimdCmp                     0      0.00%     19.37% # attempts to use FU when none available
system.cpu1.iq.fu_full::SimdCvt                     0      0.00%     19.37% # attempts to use FU when none available
system.cpu1.iq.fu_full::SimdMisc                    0      0.00%     19.37% # attempts to use FU when none available
system.cpu1.iq.fu_full::SimdMult                    0      0.00%     19.37% # attempts to use FU when none available
system.cpu1.iq.fu_full::SimdMultAcc                 0      0.00%     19.37% # attempts to use FU when none available
system.cpu1.iq.fu_full::SimdShift                   0      0.00%     19.37% # attempts to use FU when none available
system.cpu1.iq.fu_full::SimdShiftAcc                0      0.00%     19.37% # attempts to use FU when none available
system.cpu1.iq.fu_full::SimdDiv                     0      0.00%     19.37% # attempts to use FU when none available
system.cpu1.iq.fu_full::SimdSqrt                    0      0.00%     19.37% # attempts to use FU when none available
system.cpu1.iq.fu_full::SimdFloatAdd                0      0.00%     19.37% # attempts to use FU when none available
system.cpu1.iq.fu_full::SimdFloatAlu                0      0.00%     19.37% # attempts to use FU when none available
system.cpu1.iq.fu_full::SimdFloatCmp                0      0.00%     19.37% # attempts to use FU when none available
system.cpu1.iq.fu_full::SimdFloatCvt                0      0.00%     19.37% # attempts to use FU when none available
system.cpu1.iq.fu_full::SimdFloatDiv                0      0.00%     19.37% # attempts to use FU when none available
system.cpu1.iq.fu_full::SimdFloatMisc               0      0.00%     19.37% # attempts to use FU when none available
system.cpu1.iq.fu_full::SimdFloatMult               0      0.00%     19.37% # attempts to use FU when none available
system.cpu1.iq.fu_full::SimdFloatMultAcc            0      0.00%     19.37% # attempts to use FU when none available
system.cpu1.iq.fu_full::SimdFloatSqrt               0      0.00%     19.37% # attempts to use FU when none available
system.cpu1.iq.fu_full::SimdReduceAdd               0      0.00%     19.37% # attempts to use FU when none available
system.cpu1.iq.fu_full::SimdReduceAlu               0      0.00%     19.37% # attempts to use FU when none available
system.cpu1.iq.fu_full::SimdReduceCmp               0      0.00%     19.37% # attempts to use FU when none available
system.cpu1.iq.fu_full::SimdFloatReduceAdd            0      0.00%     19.37% # attempts to use FU when none available
system.cpu1.iq.fu_full::SimdFloatReduceCmp            0      0.00%     19.37% # attempts to use FU when none available
system.cpu1.iq.fu_full::SimdAes                     0      0.00%     19.37% # attempts to use FU when none available
system.cpu1.iq.fu_full::SimdAesMix                  0      0.00%     19.37% # attempts to use FU when none available
system.cpu1.iq.fu_full::SimdSha1Hash                0      0.00%     19.37% # attempts to use FU when none available
system.cpu1.iq.fu_full::SimdSha1Hash2               0      0.00%     19.37% # attempts to use FU when none available
system.cpu1.iq.fu_full::SimdSha256Hash              0      0.00%     19.37% # attempts to use FU when none available
system.cpu1.iq.fu_full::SimdSha256Hash2             0      0.00%     19.37% # attempts to use FU when none available
system.cpu1.iq.fu_full::SimdShaSigma2               0      0.00%     19.37% # attempts to use FU when none available
system.cpu1.iq.fu_full::SimdShaSigma3               0      0.00%     19.37% # attempts to use FU when none available
system.cpu1.iq.fu_full::SimdPredAlu                 0      0.00%     19.37% # attempts to use FU when none available
system.cpu1.iq.fu_full::MemRead               3120496     71.04%     90.41% # attempts to use FU when none available
[...]
system.cpu1.dcache.ReadReq_avg_miss_latency::.cpu1.data 81168.650298                       # average ReadReq miss latency
system.cpu1.dcache.ReadReq_avg_miss_latency::total 81168.650298                       # average ReadReq miss latency
system.cpu1.dcache.ReadReq_mshr_hits::.cpu1.data      9957272                       # number of ReadReq MSHR hits
system.cpu1.dcache.ReadReq_mshr_hits::total      9957272                       # number of ReadReq MSHR hits
system.cpu1.dcache.ReadReq_mshr_misses::.cpu1.data      8061030                       # number of ReadReq MSHR misses
system.cpu1.dcache.ReadReq_mshr_misses::total      8061030                       # number of ReadReq MSHR misses
system.cpu1.dcache.ReadReq_mshr_miss_latency::.cpu1.data 788828203000                       # number of ReadReq MSHR miss cycles
system.cpu1.dcache.ReadReq_mshr_miss_latency::total 788828203000                       # number of ReadReq MSHR miss cycles
system.cpu1.dcache.ReadReq_mshr_miss_rate::.cpu1.data     0.104736                       # mshr miss rate for ReadReq accesses
system.cpu1.dcache.ReadReq_mshr_miss_rate::total     0.104736                       # mshr miss rate for ReadReq accesses
system.cpu1.dcache.ReadReq_avg_mshr_miss_latency::.cpu1.data 97856.998795                       # average ReadReq mshr miss latency
system.cpu1.dcache.ReadReq_avg_mshr_miss_latency::total 97856.998795                       # average ReadReq mshr miss latency
system.cpu1.dcache.WriteReq_hits::.cpu1.data      2215865                       # number of WriteReq hits
system.cpu1.dcache.WriteReq_hits::total       2215865                       # number of WriteReq hits
system.cpu1.dcache.WriteReq_misses::.cpu1.data      1487765                       # number of WriteReq misses
system.cpu1.dcache.WriteReq_misses::total      1487765                       # number of WriteReq misses
system.cpu1.dcache.WriteReq_miss_latency::.cpu1.data 129023123220                       # number of WriteReq miss cycles
system.cpu1.dcache.WriteReq_miss_latency::total 129023123220                       # number of WriteReq miss cycles
system.cpu1.dcache.WriteReq_accesses::.cpu1.data      3703630                       # number of WriteReq accesses(hits+misses)
system.cpu1.dcache.WriteReq_accesses::total      3703630                       # number of WriteReq accesses(hits+misses)
system.cpu1.dcache.WriteReq_miss_rate::.cpu1.data     0.401705                       # miss rate for WriteReq accesses
system.cpu1.dcache.WriteReq_miss_rate::total     0.401705                       # miss rate for WriteReq accesses
system.cpu1.dcache.WriteReq_avg_miss_latency::.cpu1.data 86722.784324                       # average WriteReq miss latency
system.cpu1.dcache.WriteReq_avg_miss_latency::total 86722.784324                       # average WriteReq miss latency
system.cpu1.dcache.WriteReq_mshr_hits::.cpu1.data      1381367                       # number of WriteReq MSHR hits
system.cpu1.dcache.WriteReq_mshr_hits::total      1381367                       # number of WriteReq MSHR hits
system.cpu1.dcache.WriteReq_mshr_misses::.cpu1.data       106398                       # number of WriteReq MSHR misses
system.cpu1.dcache.WriteReq_mshr_misses::total       106398                       # number of WriteReq MSHR misses
system.cpu1.dcache.WriteReq_mshr_miss_latency::.cpu1.data  11378292307                       # number of WriteReq MSHR miss cycles
system.cpu1.dcache.WriteReq_mshr_miss_latency::total  11378292307                       # number of WriteReq MSHR miss cycles
system.cpu1.dcache.WriteReq_mshr_miss_rate::.cpu1.data     0.028728                       # mshr miss rate for WriteReq accesses
system.cpu1.dcache.WriteReq_mshr_miss_rate::total     0.028728                       # mshr miss rate for WriteReq accesses
system.cpu1.dcache.WriteReq_avg_mshr_miss_latency::.cpu1.data 106940.847638                       # average WriteReq mshr miss latency
system.cpu1.dcache.WriteReq_avg_mshr_miss_latency::total 106940.847638                       # average WriteReq mshr miss latency
system.cpu1.dcache.LoadLockedReq_hits::.cpu1.data          663                       # number of LoadLockedReq hits
system.cpu1.dcache.LoadLockedReq_hits::total          663                       # number of LoadLockedReq hits
system.cpu1.dcache.LoadLockedReq_misses::.cpu1.data          159                       # number of LoadLockedReq misses
system.cpu1.dcache.LoadLockedReq_misses::total          159                       # number of LoadLockedReq misses
system.cpu1.dcache.LoadLockedReq_miss_latency::.cpu1.data     13238000                       # number of LoadLockedReq miss cycles
system.cpu1.dcache.LoadLockedReq_miss_latency::total     13238000                       # number of LoadLockedReq miss cycles
system.cpu1.dcache.LoadLockedReq_accesses::.cpu1.data          822                       # number of LoadLockedReq accesses(hits+misses)
system.cpu1.dcache.LoadLockedReq_accesses::total          822                       # number of LoadLockedReq accesses(hits+misses)
system.cpu1.dcache.LoadLockedReq_miss_rate::.cpu1.data     0.193431                       # miss rate for LoadLockedReq accesses
system.cpu1.dcache.LoadLockedReq_miss_rate::total     0.193431                       # miss rate for LoadLockedReq accesses
system.cpu1.dcache.LoadLockedReq_avg_miss_latency::.cpu1.data 83257.861635                       # average LoadLockedReq miss latency
system.cpu1.dcache.LoadLockedReq_avg_miss_latency::total 83257.861635                       # average LoadLockedReq miss latency
system.cpu1.dcache.LoadLockedReq_mshr_hits::.cpu1.data           77                       # number of LoadLockedReq MSHR hits
system.cpu1.dcache.LoadLockedReq_mshr_hits::total           77                       # number of LoadLockedReq MSHR hits
system.cpu1.dcache.LoadLockedReq_mshr_misses::.cpu1.data           82                       # number of LoadLockedReq MSHR misses
system.cpu1.dcache.LoadLockedReq_mshr_misses::total           82                       # number of LoadLockedReq MSHR misses
system.cpu1.dcache.LoadLockedReq_mshr_miss_latency::.cpu1.data      7463500                       # number of LoadLockedReq MSHR miss cycles
system.cpu1.dcache.LoadLockedReq_mshr_miss_latency::total      7463500                       # number of LoadLockedReq MSHR miss cycles
system.cpu1.dcache.LoadLockedReq_mshr_miss_rate::.cpu1.data     0.099757                       # mshr miss rate for LoadLockedReq accesses
system.cpu1.dcache.LoadLockedReq_mshr_miss_rate::total     0.099757                       # mshr miss rate for LoadLockedReq accesses
system.cpu1.dcache.LoadLockedReq_avg_mshr_miss_latency::.cpu1.data 91018.292683                       # average LoadLockedReq mshr miss latency
system.cpu1.dcache.LoadLockedReq_avg_mshr_miss_latency::total 91018.292683                       # average LoadLockedReq mshr miss latency
system.cpu1.dcache.StoreCondReq_hits::.cpu1.data          572                       # number of StoreCondReq hits
system.cpu1.dcache.StoreCondReq_hits::total          572                       # number of StoreCondReq hits
system.cpu1.dcache.StoreCondReq_misses::.cpu1.data          228                       # number of StoreCondReq misses
system.cpu1.dcache.StoreCondReq_misses::total          228                       # number of StoreCondReq misses
system.cpu1.dcache.StoreCondReq_miss_latency::.cpu1.data      1823500                       # number of StoreCondReq miss cycles
system.cpu1.dcache.StoreCondReq_miss_latency::total      1823500                       # number of StoreCondReq miss cycles
system.cpu1.dcache.StoreCondReq_accesses::.cpu1.data          800                       # number of StoreCondReq accesses(hits+misses)
system.cpu1.dcache.StoreCondReq_accesses::total          800                       # number of StoreCondReq accesses(hits+misses)
system.cpu1.dcache.StoreCondReq_miss_rate::.cpu1.data     0.285000                       # miss rate for StoreCondReq accesses
system.cpu1.dcache.StoreCondReq_miss_rate::total     0.285000                       # miss rate for StoreCondReq accesses
system.cpu1.dcache.StoreCondReq_avg_miss_latency::.cpu1.data  7997.807018                       # average StoreCondReq miss latency
system.cpu1.dcache.StoreCondReq_avg_miss_latency::total  7997.807018                       # average StoreCondReq miss latency
system.cpu1.dcache.StoreCondReq_mshr_misses::.cpu1.data          228                       # number of StoreCondReq MSHR misses
system.cpu1.dcache.StoreCondReq_mshr_misses::total          228                       # number of StoreCondReq MSHR misses
system.cpu1.dcache.StoreCondReq_mshr_miss_latency::.cpu1.data      1595500                       # number of StoreCondReq MSHR miss cycles
system.cpu1.dcache.StoreCondReq_mshr_miss_latency::total      1595500                       # number of StoreCondReq MSHR miss cycles
system.cpu1.dcache.StoreCondReq_mshr_miss_rate::.cpu1.data     0.285000                       # mshr miss rate for StoreCondReq accesses
system.cpu1.dcache.StoreCondReq_mshr_miss_rate::total     0.285000                       # mshr miss rate for StoreCondReq accesses
system.cpu1.dcache.StoreCondReq_avg_mshr_miss_latency::.cpu1.data  6997.807018                       # average StoreCondReq mshr miss latency
system.cpu1.dcache.StoreCondReq_avg_mshr_miss_latency::total  6997.807018                       # average StoreCondReq mshr miss latency
system.cpu1.dcache.SwapReq_hits::.cpu1.data          311                       # number of SwapReq hits
system.cpu1.dcache.SwapReq_hits::total            311                       # number of SwapReq hits
system.cpu1.dcache.SwapReq_misses::.cpu1.data          148                       # number of SwapReq misses
system.cpu1.dcache.SwapReq_misses::total          148                       # number of SwapReq misses
system.cpu1.dcache.SwapReq_miss_latency::.cpu1.data       764000                       # number of SwapReq miss cycles
system.cpu1.dcache.SwapReq_miss_latency::total       764000                       # number of SwapReq miss cycles
system.cpu1.dcache.SwapReq_accesses::.cpu1.data          459                       # number of SwapReq accesses(hits+misses)
system.cpu1.dcache.SwapReq_accesses::total          459                       # number of SwapReq accesses(hits+misses)
system.cpu1.dcache.SwapReq_miss_rate::.cpu1.data     0.322440                       # miss rate for SwapReq accesses
system.cpu1.dcache.SwapReq_miss_rate::total     0.322440                       # miss rate for SwapReq accesses
system.cpu1.dcache.SwapReq_avg_miss_latency::.cpu1.data  5162.162162                       # average SwapReq miss latency
system.cpu1.dcache.SwapReq_avg_miss_latency::total  5162.162162                       # average SwapReq miss latency
system.cpu1.dcache.SwapReq_mshr_misses::.cpu1.data          148                       # number of SwapReq MSHR misses
system.cpu1.dcache.SwapReq_mshr_misses::total          148                       # number of SwapReq MSHR misses
system.cpu1.dcache.SwapReq_mshr_miss_latency::.cpu1.data       616000                       # number of SwapReq MSHR miss cycles
system.cpu1.dcache.SwapReq_mshr_miss_latency::total       616000                       # number of SwapReq MSHR miss cycles
system.cpu1.dcache.SwapReq_mshr_miss_rate::.cpu1.data     0.322440                       # mshr miss rate for SwapReq accesses
system.cpu1.dcache.SwapReq_mshr_miss_rate::total     0.322440                       # mshr miss rate for SwapReq accesses
system.cpu1.dcache.SwapReq_avg_mshr_miss_latency::.cpu1.data  4162.162162                       # average SwapReq mshr miss latency
system.cpu1.dcache.SwapReq_avg_mshr_miss_latency::total  4162.162162                       # average SwapReq mshr miss latency
system.cpu1.dcache.tags.pwrStateResidencyTicks::UNDEFINED 1166382612000                       # Cumulative time (in ticks) in various power states
system.cpu1.dcache.tags.tagsinuse           31.996346                       # Cycle average of tags in use
system.cpu1.dcache.tags.total_refs           69334914                       # Total number of references to valid blocks.
system.cpu1.dcache.tags.sampled_refs          8167267                       # Sample count of references to valid blocks.
system.cpu1.dcache.tags.avg_refs             8.489365                       # Average number of references to valid blocks.
system.cpu1.dcache.tags.warmup_cycle                0                       # Cycle when the warmup percentage was hit.
system.cpu1.dcache.tags.occ_blocks::.cpu1.data    31.996346                       # Average occupied blocks per requestor
system.cpu1.dcache.tags.occ_percent::.cpu1.data     0.999886                       # Average percentage of cache occupancy
system.cpu1.dcache.tags.occ_percent::total     0.999886                       # Average percentage of cache occupancy
system.cpu1.dcache.tags.occ_task_id_blocks::1024           29                       # Occupied blocks per task id
system.cpu1.dcache.tags.age_task_id_blocks_1024::1           29                       # Occupied blocks per task id
system.cpu1.dcache.tags.occ_task_id_percent::1024     0.906250                       # Percentage of cache occupancy per task id
system.cpu1.dcache.tags.tag_accesses        169509525                       # Number of tag accesses
system.cpu1.dcache.tags.data_accesses       169509525                       # Number of data accesses
system.cpu_clk_domain.clock                       500                       # Clock period in ticks
system.tol2bus.pwrStateResidencyTicks::UNDEFINED 1166382612000                       # Cumulative time (in ticks) in various power states
system.tol2bus.trans_dist::ReadResp          47779387                       # Transaction distribution
system.tol2bus.trans_dist::WritebackDirty      2503651                       # Transaction distribution
system.tol2bus.trans_dist::WritebackClean     46664089                       # Transaction distribution
system.tol2bus.trans_dist::CleanEvict       126291867                       # Transaction distribution
system.tol2bus.trans_dist::HardPFReq         82354031                       # Transaction distribution
system.tol2bus.trans_dist::HardPFResp               1                       # Transaction distribution
system.tol2bus.trans_dist::UpgradeReq            1432                       # Transaction distribution
system.tol2bus.trans_dist::SCUpgradeReq           465                       # Transaction distribution
system.tol2bus.trans_dist::UpgradeResp           1897                       # Transaction distribution
system.tol2bus.trans_dist::ReadExReq           211328                       # Transaction distribution
system.tol2bus.trans_dist::ReadExResp          211328                       # Transaction distribution
system.tol2bus.trans_dist::ReadCleanReq         17802                       # Transaction distribution
system.tol2bus.trans_dist::ReadSharedReq     47761585                       # Transaction distribution
system.tol2bus.pkt_count_system.cpu0.icache.mem_side::system.l2.cpu_side        46212                       # Packet count per connected master and slave (bytes)
system.tol2bus.pkt_count_system.cpu0.dcache.mem_side::system.l2.cpu_side    119415776                       # Packet count per connected master and slave (bytes)
system.tol2bus.pkt_count_system.cpu1.icache.mem_side::system.l2.cpu_side         7194                       # Packet count per connected master and slave (bytes)
system.tol2bus.pkt_count_system.cpu1.dcache.mem_side::system.l2.cpu_side     24498487                       # Packet count per connected master and slave (bytes)
system.tol2bus.pkt_count::total             143967669                       # Packet count per connected master and slave (bytes)
system.tol2bus.pkt_size_system.cpu0.icache.mem_side::system.l2.cpu_side      1971712                       # Cumulative packet size per connected master and slave (bytes)
system.tol2bus.pkt_size_system.cpu0.dcache.mem_side::system.l2.cpu_side   5094938304                       # Cumulative packet size per connected master and slave (bytes)
system.tol2bus.pkt_size_system.cpu1.icache.mem_side::system.l2.cpu_side       306944                       # Cumulative packet size per connected master and slave (bytes)
system.tol2bus.pkt_size_system.cpu1.dcache.mem_side::system.l2.cpu_side   1045151616                       # Cumulative packet size per connected master and slave (bytes)
system.tol2bus.pkt_size::total             6142368576                       # Cumulative packet size per connected master and slave (bytes)
system.tol2bus.snoops                       209831195                       # Total snoops (count)
system.tol2bus.snoopTraffic                  75772672                       # Total snoop traffic (bytes)
system.tol2bus.snoop_fanout::samples        257866967                       # Request fanout histogram
system.tol2bus.snoop_fanout::mean            0.167570                       # Request fanout histogram
system.tol2bus.snoop_fanout::stdev           0.376784                       # Request fanout histogram
system.tol2bus.snoop_fanout::underflows             0      0.00%      0.00% # Request fanout histogram
system.tol2bus.snoop_fanout::0              214975331     83.37%     83.37% # Request fanout histogram
system.tol2bus.snoop_fanout::1               42572464     16.51%     99.88% # Request fanout histogram
system.tol2bus.snoop_fanout::2                 319172      0.12%    100.00% # Request fanout histogram
system.tol2bus.snoop_fanout::3                      0      0.00%    100.00% # Request fanout histogram
system.tol2bus.snoop_fanout::4                      0      0.00%    100.00% # Request fanout histogram
system.tol2bus.snoop_fanout::5                      0      0.00%    100.00% # Request fanout histogram
system.tol2bus.snoop_fanout::6                      0      0.00%    100.00% # Request fanout histogram
system.tol2bus.snoop_fanout::7                      0      0.00%    100.00% # Request fanout histogram
system.tol2bus.snoop_fanout::8                      0      0.00%    100.00% # Request fanout histogram
system.tol2bus.snoop_fanout::overflows              0      0.00%    100.00% # Request fanout histogram
system.tol2bus.snoop_fanout::min_value              0                       # Request fanout histogram
system.tol2bus.snoop_fanout::max_value              2                       # Request fanout histogram
system.tol2bus.snoop_fanout::total          257866967                       # Request fanout histogram
system.tol2bus.reqLayer0.occupancy        96089141319                       # Layer occupancy (ticks)
system.tol2bus.reqLayer0.utilization              8.2                       # Layer utilization (%)
system.tol2bus.respLayer1.occupancy       59718561595                       # Layer occupancy (ticks)
system.tol2bus.respLayer1.utilization             5.1                       # Layer utilization (%)
system.tol2bus.respLayer0.occupancy          23115980                       # Layer occupancy (ticks)
system.tol2bus.respLayer0.utilization             0.0                       # Layer utilization (%)
system.tol2bus.respLayer3.occupancy       12256775308                       # Layer occupancy (ticks)
system.tol2bus.respLayer3.utilization             1.1                       # Layer utilization (%)
system.tol2bus.respLayer2.occupancy           3601990                       # Layer occupancy (ticks)
system.tol2bus.respLayer2.utilization             0.0                       # Layer utilization (%)
system.tol2bus.snoopLayer0.occupancy             1504                       # Layer occupancy (ticks)
system.tol2bus.snoopLayer0.utilization            0.0                       # Layer utilization (%)

---------- End Simulation Statistics   ----------
