
---------- Begin Simulation Statistics ----------
final_tick                               1069780262000                       # Number of ticks from beginning of simulation (restored from checkpoints and never reset)
host_inst_rate                                  70943                       # Simulator instruction rate (inst/s)
host_mem_usage                                 702904                       # Number of bytes of host memory used
host_op_rate                                    71176                       # Simulator op (including micro ops) rate (op/s)
host_seconds                                 15586.63                       # Real time elapsed on the host
host_tick_rate                               68634503                       # Simulator tick rate (ticks/s)
sim_freq                                 1000000000000                       # Frequency of simulated ticks
sim_insts                                  1105762426                       # Number of instructions simulated
sim_ops                                    1109387800                       # Number of ops (including micro ops) simulated
sim_seconds                                  1.069780                       # Number of seconds simulated
sim_ticks                                1069780262000                       # Number of ticks simulated
system.cpu0.branchPred.BTBCorrect                   0                       # Number of correct BTB predictions (this stat may not work properly.
system.cpu0.branchPred.BTBHitPct            81.384285                       # BTB Hit Percentage
system.cpu0.branchPred.BTBHits              142403917                       # Number of BTB hits
system.cpu0.branchPred.BTBLookups           174977167                       # Number of BTB lookups
system.cpu0.branchPred.RASInCorrect                 0                       # Number of incorrect RAS predictions.
system.cpu0.branchPred.condIncorrect         16615060                       # Number of conditional branches incorrect
system.cpu0.branchPred.condPredicted        222979652                       # Number of conditional branches predicted
system.cpu0.branchPred.indirectHits          20468262                       # Number of indirect target hits.
system.cpu0.branchPred.indirectLookups       20735198                       # Number of indirect predictor lookups.
system.cpu0.branchPred.indirectMisses          266936                       # Number of indirect misses.
system.cpu0.branchPred.lookups              285335388                       # Number of BP lookups
system.cpu0.branchPred.usedRAS                      0                       # Number of times the RAS was used to get a target.
system.cpu0.branchPredindirectMispredicted      1863549                       # Number of mispredicted indirect branches.
system.cpu0.commit.amos                       1811479                       # Number of atomic instructions committed
system.cpu0.commit.branchMispredicts         10470690                       # The number of times a branch was mispredicted
system.cpu0.commit.branches                 260669152                       # Number of branches committed
system.cpu0.commit.bw_lim_events             33903660                       # number cycles where commit BW limit reached
system.cpu0.commit.commitNonSpecStalls        5441417                       # The number of times commit has been forced to stall to communicate backwards
system.cpu0.commit.commitSquashedInsts       94932256                       # The number of squashed insts skipped by commit
system.cpu0.commit.committedInsts          1050693487                       # Number of instructions committed
system.cpu0.commit.committedOps            1052507489                       # Number of ops (including micro ops) committed
system.cpu0.commit.committed_per_cycle::samples   1921568843                       # Number of insts commited each cycle
system.cpu0.commit.committed_per_cycle::mean     0.547733                       # Number of insts commited each cycle
system.cpu0.commit.committed_per_cycle::stdev     1.357550                       # Number of insts commited each cycle
system.cpu0.commit.committed_per_cycle::underflows            0      0.00%      0.00% # Number of insts commited each cycle
system.cpu0.commit.committed_per_cycle::0   1430032878     74.42%     74.42% # Number of insts commited each cycle
system.cpu0.commit.committed_per_cycle::1    290367256     15.11%     89.53% # Number of insts commited each cycle
system.cpu0.commit.committed_per_cycle::2     70823240      3.69%     93.22% # Number of insts commited each cycle
system.cpu0.commit.committed_per_cycle::3     62504213      3.25%     96.47% # Number of insts commited each cycle
system.cpu0.commit.committed_per_cycle::4     20650389      1.07%     97.54% # Number of insts commited each cycle
system.cpu0.commit.committed_per_cycle::5      5252646      0.27%     97.82% # Number of insts commited each cycle
system.cpu0.commit.committed_per_cycle::6      3354879      0.17%     97.99% # Number of insts commited each cycle
system.cpu0.commit.committed_per_cycle::7      4679682      0.24%     98.24% # Number of insts commited each cycle
system.cpu0.commit.committed_per_cycle::8     33903660      1.76%    100.00% # Number of insts commited each cycle
system.cpu0.commit.committed_per_cycle::overflows            0      0.00%    100.00% # Number of insts commited each cycle
system.cpu0.commit.committed_per_cycle::min_value            0                       # Number of insts commited each cycle
system.cpu0.commit.committed_per_cycle::max_value            8                       # Number of insts commited each cycle
system.cpu0.commit.committed_per_cycle::total   1921568843                       # Number of insts commited each cycle
system.cpu0.commit.fp_insts                        65                       # Number of committed floating point instructions.
system.cpu0.commit.function_calls            20856906                       # Number of function calls committed.
system.cpu0.commit.int_insts               1015890007                       # Number of committed integer instructions.
system.cpu0.commit.loads                    326211462                       # Number of loads committed
system.cpu0.commit.membars                    3625358                       # Number of memory barriers committed
system.cpu0.commit.op_class_0::No_OpClass      3625367      0.34%      0.34% # Class of committed instruction
system.cpu0.commit.op_class_0::IntAlu       583867759     55.47%     55.82% # Class of committed instruction
system.cpu0.commit.op_class_0::IntMult        8030383      0.76%     56.58% # Class of committed instruction
system.cpu0.commit.op_class_0::IntDiv         1811041      0.17%     56.75% # Class of committed instruction
system.cpu0.commit.op_class_0::FloatAdd             0      0.00%     56.75% # Class of committed instruction
system.cpu0.commit.op_class_0::FloatCmp             6      0.00%     56.75% # Class of committed instruction
system.cpu0.commit.op_class_0::FloatCvt            16      0.00%     56.75% # Class of committed instruction
system.cpu0.commit.op_class_0::FloatMult            0      0.00%     56.75% # Class of committed instruction
system.cpu0.commit.op_class_0::FloatMultAcc            0      0.00%     56.75% # Class of committed instruction
system.cpu0.commit.op_class_0::FloatDiv             2      0.00%     56.75% # Class of committed instruction
system.cpu0.commit.op_class_0::FloatMisc            6      0.00%     56.75% # Class of committed instruction
system.cpu0.commit.op_class_0::FloatSqrt            0      0.00%     56.75% # Class of committed instruction
system.cpu0.commit.op_class_0::SimdAdd              0      0.00%     56.75% # Class of committed instruction
system.cpu0.commit.op_class_0::SimdAddAcc            0      0.00%     56.75% # Class of committed instruction
system.cpu0.commit.op_class_0::SimdAlu              0      0.00%     56.75% # Class of committed instruction
system.cpu0.commit.op_class_0::SimdCmp              0      0.00%     56.75% # Class of committed instruction
system.cpu0.commit.op_class_0::SimdCvt              0      0.00%     56.75% # Class of committed instruction
system.cpu0.commit.op_class_0::SimdMisc             0      0.00%     56.75% # Class of committed instruction
system.cpu0.commit.op_class_0::SimdMult             0      0.00%     56.75% # Class of committed instruction
system.cpu0.commit.op_class_0::SimdMultAcc            0      0.00%     56.75% # Class of committed instruction
system.cpu0.commit.op_class_0::SimdShift            0      0.00%     56.75% # Class of committed instruction
system.cpu0.commit.op_class_0::SimdShiftAcc            0      0.00%     56.75% # Class of committed instruction
system.cpu0.commit.op_class_0::SimdDiv              0      0.00%     56.75% # Class of committed instruction
system.cpu0.commit.op_class_0::SimdSqrt             0      0.00%     56.75% # Class of committed instruction
system.cpu0.commit.op_class_0::SimdFloatAdd            0      0.00%     56.75% # Class of committed instruction
system.cpu0.commit.op_class_0::SimdFloatAlu            0      0.00%     56.75% # Class of committed instruction
system.cpu0.commit.op_class_0::SimdFloatCmp            0      0.00%     56.75% # Class of committed instruction
system.cpu0.commit.op_class_0::SimdFloatCvt            0      0.00%     56.75% # Class of committed instruction
system.cpu0.commit.op_class_0::SimdFloatDiv            0      0.00%     56.75% # Class of committed instruction
system.cpu0.commit.op_class_0::SimdFloatMisc            0      0.00%     56.75% # Class of committed instruction
system.cpu0.commit.op_class_0::SimdFloatMult            0      0.00%     56.75% # Class of committed instruction
system.cpu0.commit.op_class_0::SimdFloatMultAcc            0      0.00%     56.75% # Class of committed instruction
system.cpu0.commit.op_class_0::SimdFloatSqrt            0      0.00%     56.75% # Class of committed instruction
system.cpu0.commit.op_class_0::SimdReduceAdd            0      0.00%     56.75% # Class of committed instruction
system.cpu0.commit.op_class_0::SimdReduceAlu            0      0.00%     56.75% # Class of committed instruction
system.cpu0.commit.op_class_0::SimdReduceCmp            0      0.00%     56.75% # Class of committed instruction
system.cpu0.commit.op_class_0::SimdFloatReduceAdd            0      0.00%     56.75% # Class of committed instruction
system.cpu0.commit.op_class_0::SimdFloatReduceCmp            0      0.00%     56.75% # Class of committed instruction
system.cpu0.commit.op_class_0::SimdAes              0      0.00%     56.75% # Class of committed instruction
system.cpu0.commit.op_class_0::SimdAesMix            0      0.00%     56.75% # Class of committed instruction
system.cpu0.commit.op_class_0::SimdSha1Hash            0      0.00%     56.75% # Class of committed instruction
system.cpu0.commit.op_class_0::SimdSha1Hash2            0      0.00%     56.75% # Class of committed instruction
system.cpu0.commit.op_class_0::SimdSha256Hash            0      0.00%     56.75% # Class of committed instruction
system.cpu0.commit.op_class_0::SimdSha256Hash2            0      0.00%     56.75% # Class of committed instruction
system.cpu0.commit.op_class_0::SimdShaSigma2            0      0.00%     56.75% # Class of committed instruction
system.cpu0.commit.op_class_0::SimdShaSigma3            0      0.00%     56.75% # Class of committed instruction
system.cpu0.commit.op_class_0::SimdPredAlu            0      0.00%     56.75% # Class of committed instruction
system.cpu0.commit.op_class_0::MemRead      328022929     31.17%     87.92% # Class of committed instruction
system.cpu0.commit.op_class_0::MemWrite     127149945     12.08%    100.00% # Class of committed instruction
system.cpu0.commit.op_class_0::FloatMemRead           12      0.00%    100.00% # Class of committed instruction
system.cpu0.commit.op_class_0::FloatMemWrite           23      0.00%    100.00% # Class of committed instruction
system.cpu0.commit.op_class_0::IprAccess            0      0.00%    100.00% # Class of committed instruction
system.cpu0.commit.op_class_0::InstPrefetch            0      0.00%    100.00% # Class of committed instruction
system.cpu0.commit.op_class_0::total       1052507489                       # Class of committed instruction
system.cpu0.commit.refs                     455172909                       # Number of memory references committed
system.cpu0.commit.swp_count                        0                       # Number of s/w prefetches committed
system.cpu0.commit.vec_insts                        0                       # Number of committed Vector instructions.
system.cpu0.committedInsts                 1050693487                       # Number of Instructions Simulated
system.cpu0.committedOps                   1052507489                       # Number of Ops (including micro ops) Simulated
system.cpu0.cpi                              2.032174                       # CPI: Cycles Per Instruction
system.cpu0.cpi_total                        2.032174                       # CPI: Total CPI of All Threads
system.cpu0.decode.BlockedCycles            359659237                       # Number of cycles decode is blocked
system.cpu0.decode.BranchMispred              6152703                       # Number of times decode detected a branch misprediction
system.cpu0.decode.BranchResolved           141222935                       # Number of times decode resolved a branch
system.cpu0.decode.DecodedInsts            1171233545                       # Number of instructions handled by decode
system.cpu0.decode.IdleCycles               740467806                       # Number of cycles decode is idle
system.cpu0.decode.RunCycles                823258636                       # Number of cycles decode is running
system.cpu0.decode.SquashCycles              10485060                       # Number of cycles decode is squashing
system.cpu0.decode.SquashedInsts             14733673                       # Number of squashed instructions handled by decode
system.cpu0.decode.UnblockCycles              6721796                       # Number of cycles decode is unblocking
system.cpu0.dtb.accesses                            0                       # DTB accesses
system.cpu0.dtb.hits                                0                       # DTB hits
system.cpu0.dtb.misses                              0                       # DTB misses
system.cpu0.dtb.read_accesses                       0                       # DTB read accesses
system.cpu0.dtb.read_hits                           0                       # DTB read hits
system.cpu0.dtb.read_misses                         0                       # DTB read misses
system.cpu0.dtb.write_accesses                      0                       # DTB write accesses
system.cpu0.dtb.write_hits                          0                       # DTB write hits
system.cpu0.dtb.write_misses                        0                       # DTB write misses
system.cpu0.fetch.Branches                  285335388                       # Number of branches that fetch encountered
system.cpu0.fetch.CacheLines                208335099                       # Number of cache lines fetched
system.cpu0.fetch.Cycles                   1193075409                       # Number of cycles fetch has run and was not squashing or blocked
system.cpu0.fetch.IcacheSquashes              3978460                       # Number of outstanding Icache misses that were squashed
system.cpu0.fetch.IcacheWaitRetryStallCycles          144                       # Number of stall cycles due to full MSHR
system.cpu0.fetch.Insts                    1194688481                       # Number of instructions fetch has processed
system.cpu0.fetch.MiscStallCycles                 235                       # Number of cycles fetch has spent waiting on interrupts, or bad addresses, or out of MSHRs
system.cpu0.fetch.PendingTrapStallCycles          418                       # Number of stall cycles due to pending traps
system.cpu0.fetch.SquashCycles               33258986                       # Number of cycles fetch has spent squashing
system.cpu0.fetch.branchRate                 0.133635                       # Number of branch fetches per cycle
system.cpu0.fetch.icacheStallCycles         730886836                       # Number of cycles fetch is stalled on an Icache miss
system.cpu0.fetch.predictedBranches         162872179                       # Number of branches that fetch has predicted taken
system.cpu0.fetch.rate                       0.559523                       # Number of inst fetches per cycle
system.cpu0.fetch.rateDist::samples        1940592535                       # Number of instructions fetched each cycle (Total)
system.cpu0.fetch.rateDist::mean             0.616566                       # Number of instructions fetched each cycle (Total)
system.cpu0.fetch.rateDist::stdev            0.871906                       # Number of instructions fetched each cycle (Total)
system.cpu0.fetch.rateDist::underflows              0      0.00%      0.00% # Number of instructions fetched each cycle (Total)
system.cpu0.fetch.rateDist::0              1079124715     55.61%     55.61% # Number of instructions fetched each cycle (Total)
system.cpu0.fetch.rateDist::1               645856074     33.28%     88.89% # Number of instructions fetched each cycle (Total)
system.cpu0.fetch.rateDist::2               130331596      6.72%     95.61% # Number of instructions fetched each cycle (Total)
system.cpu0.fetch.rateDist::3                64296384      3.31%     98.92% # Number of instructions fetched each cycle (Total)
system.cpu0.fetch.rateDist::4                12163289      0.63%     99.55% # Number of instructions fetched each cycle (Total)
system.cpu0.fetch.rateDist::5                 6513857      0.34%     99.88% # Number of instructions fetched each cycle (Total)
system.cpu0.fetch.rateDist::6                  381479      0.02%     99.90% # Number of instructions fetched each cycle (Total)
system.cpu0.fetch.rateDist::7                 1816698      0.09%     99.99% # Number of instructions fetched each cycle (Total)
system.cpu0.fetch.rateDist::8                  108443      0.01%    100.00% # Number of instructions fetched each cycle (Total)
system.cpu0.fetch.rateDist::overflows               0      0.00%    100.00% # Number of instructions fetched each cycle (Total)
system.cpu0.fetch.rateDist::min_value               0                       # Number of instructions fetched each cycle (Total)
system.cpu0.fetch.rateDist::max_value               8                       # Number of instructions fetched each cycle (Total)
system.cpu0.fetch.rateDist::total          1940592535                       # Number of instructions fetched each cycle (Total)
system.cpu0.fp_regfile_reads                       56                       # number of floating regfile reads
system.cpu0.fp_regfile_writes                      33                       # number of floating regfile writes
system.cpu0.idleCycles                      194598980                       # Total number of cycles that the CPU has spent unscheduled due to idling
system.cpu0.iew.branchMispredicts            10573476                       # Number of branch mispredicts detected at execute
system.cpu0.iew.exec_branches               272591300                       # Number of branches executed
system.cpu0.iew.exec_nop                            0                       # number of nop insts executed
system.cpu0.iew.exec_rate                    0.531570                       # Inst execution rate
system.cpu0.iew.exec_refs                   506865855                       # number of memory reference insts executed
system.cpu0.iew.exec_stores                 139890137                       # Number of stores executed
system.cpu0.iew.exec_swp                            0                       # number of swp insts executed
system.cpu0.iew.iewBlockCycles              298326135                       # Number of cycles IEW is blocking
system.cpu0.iew.iewDispLoadInsts            368475080                       # Number of dispatched load instructions
system.cpu0.iew.iewDispNonSpecInsts           1816716                       # Number of dispatched non-speculative instructions
system.cpu0.iew.iewDispSquashedInsts          6825477                       # Number of squashed instructions skipped by dispatch
system.cpu0.iew.iewDispStoreInsts           141288855                       # Number of dispatched store instructions
system.cpu0.iew.iewDispatchedInsts         1147424361                       # Number of instructions dispatched to IQ
system.cpu0.iew.iewExecLoadInsts            366975718                       # Number of load instructions executed
system.cpu0.iew.iewExecSquashedInsts          4944208                       # Number of squashed instructions skipped in execute
system.cpu0.iew.iewExecutedInsts           1135004377                       # Number of executed instructions
system.cpu0.iew.iewIQFullEvents               1738728                       # Number of times the IQ has become full, causing a stall
system.cpu0.iew.iewIdleCycles                       0                       # Number of cycles IEW is idle
system.cpu0.iew.iewLSQFullEvents              3934199                       # Number of times the LSQ has become full, causing a stall
system.cpu0.iew.iewSquashCycles              10485060                       # Number of cycles IEW is squashing
system.cpu0.iew.iewUnblockCycles              7746257                       # Number of cycles IEW is unblocking
system.cpu0.iew.lsq.thread0.blockedLoads            0                       # Number of blocked loads due to partial load-store forwarding
system.cpu0.iew.lsq.thread0.cacheBlocked       104531                       # Number of times an access to memory failed due to the cache being blocked
system.cpu0.iew.lsq.thread0.forwLoads        20827744                       # Number of loads that had data forwarded from stores
system.cpu0.iew.lsq.thread0.ignoredResponses        41901                       # Number of memory responses ignored because the instruction is squashed
system.cpu0.iew.lsq.thread0.invAddrLoads            0                       # Number of loads ignored due to an invalid address
system.cpu0.iew.lsq.thread0.invAddrSwpfs            0                       # Number of software prefetches ignored due to an invalid address
system.cpu0.iew.lsq.thread0.memOrderViolation        14679                       # Number of memory ordering violations
system.cpu0.iew.lsq.thread0.rescheduledLoads      5840194                       # Number of loads that were rescheduled
system.cpu0.iew.lsq.thread0.squashedLoads     42263618                       # Number of loads squashed
system.cpu0.iew.lsq.thread0.squashedStores     12327408                       # Number of stores squashed
system.cpu0.iew.memOrderViolationEvents         14679                       # Number of memory order violations
system.cpu0.iew.predictedNotTakenIncorrect      1155511                       # Number of branches that were predicted not taken incorrectly
system.cpu0.iew.predictedTakenIncorrect       9417965                       # Number of branches that were predicted taken incorrectly
system.cpu0.iew.wb_consumers                480029511                       # num instructions consuming a value
system.cpu0.iew.wb_count                   1123462559                       # cumulative count of insts written-back
system.cpu0.iew.wb_fanout                    0.851380                       # average fanout of values written-back
system.cpu0.iew.wb_producers                408687545                       # num instructions producing a value
system.cpu0.iew.wb_rate                      0.526165                       # insts written-back per cycle
system.cpu0.iew.wb_sent                    1123588748                       # cumulative count of insts sent to commit
system.cpu0.int_regfile_reads              1383939690                       # number of integer regfile reads
system.cpu0.int_regfile_writes              719061927                       # number of integer regfile writes
system.cpu0.ipc                              0.492084                       # IPC: Instructions Per Cycle
system.cpu0.ipc_total                        0.492084                       # IPC: Total IPC of All Threads
system.cpu0.iq.FU_type_0::No_OpClass          3626913      0.32%      0.32% # Type of FU issued
system.cpu0.iq.FU_type_0::IntAlu            617479236     54.17%     54.49% # Type of FU issued
system.cpu0.iq.FU_type_0::IntMult             8036030      0.70%     55.19% # Type of FU issued
system.cpu0.iq.FU_type_0::IntDiv              1811562      0.16%     55.35% # Type of FU issued
system.cpu0.iq.FU_type_0::FloatAdd                  0      0.00%     55.35% # Type of FU issued
system.cpu0.iq.FU_type_0::FloatCmp                  6      0.00%     55.35% # Type of FU issued
system.cpu0.iq.FU_type_0::FloatCvt                 16      0.00%     55.35% # Type of FU issued
system.cpu0.iq.FU_type_0::FloatMult                 0      0.00%     55.35% # Type of FU issued
system.cpu0.iq.FU_type_0::FloatMultAcc              0      0.00%     55.35% # Type of FU issued
system.cpu0.iq.FU_type_0::FloatDiv                  2      0.00%     55.35% # Type of FU issued
system.cpu0.iq.FU_type_0::FloatMisc                 6      0.00%     55.35% # Type of FU issued
system.cpu0.iq.FU_type_0::FloatSqrt                 0      0.00%     55.35% # Type of FU issued
system.cpu0.iq.FU_type_0::SimdAdd                   0      0.00%     55.35% # Type of FU issued
system.cpu0.iq.FU_type_0::SimdAddAcc                0      0.00%     55.35% # Type of FU issued
system.cpu0.iq.FU_type_0::SimdAlu                   0      0.00%     55.35% # Type of FU issued
system.cpu0.iq.FU_type_0::SimdCmp                   0      0.00%     55.35% # Type of FU issued
system.cpu0.iq.FU_type_0::SimdCvt                   0      0.00%     55.35% # Type of FU issued
system.cpu0.iq.FU_type_0::SimdMisc                  0      0.00%     55.35% # Type of FU issued
system.cpu0.iq.FU_type_0::SimdMult                  0      0.00%     55.35% # Type of FU issued
system.cpu0.iq.FU_type_0::SimdMultAcc               0      0.00%     55.35% # Type of FU issued
system.cpu0.iq.FU_type_0::SimdShift                 0      0.00%     55.35% # Type of FU issued
system.cpu0.iq.FU_type_0::SimdShiftAcc              0      0.00%     55.35% # Type of FU issued
system.cpu0.iq.FU_type_0::SimdDiv                   0      0.00%     55.35% # Type of FU issued
system.cpu0.iq.FU_type_0::SimdSqrt                  0      0.00%     55.35% # Type of FU issued
system.cpu0.iq.FU_type_0::SimdFloatAdd              0      0.00%     55.35% # Type of FU issued
system.cpu0.iq.FU_type_0::SimdFloatAlu              0      0.00%     55.35% # Type of FU issued
system.cpu0.iq.FU_type_0::SimdFloatCmp              0      0.00%     55.35% # Type of FU issued
system.cpu0.iq.FU_type_0::SimdFloatCvt              0      0.00%     55.35% # Type of FU issued
system.cpu0.iq.FU_type_0::SimdFloatDiv              0      0.00%     55.35% # Type of FU issued
system.cpu0.iq.FU_type_0::SimdFloatMisc             0      0.00%     55.35% # Type of FU issued
system.cpu0.iq.FU_type_0::SimdFloatMult             0      0.00%     55.35% # Type of FU issued
system.cpu0.iq.FU_type_0::SimdFloatMultAcc            0      0.00%     55.35% # Type of FU issued
system.cpu0.iq.FU_type_0::SimdFloatSqrt             0      0.00%     55.35% # Type of FU issued
system.cpu0.iq.FU_type_0::SimdReduceAdd             0      0.00%     55.35% # Type of FU issued
system.cpu0.iq.FU_type_0::SimdReduceAlu             0      0.00%     55.35% # Type of FU issued
system.cpu0.iq.FU_type_0::SimdReduceCmp             0      0.00%     55.35% # Type of FU issued
system.cpu0.iq.FU_type_0::SimdFloatReduceAdd            0      0.00%     55.35% # Type of FU issued
system.cpu0.iq.FU_type_0::SimdFloatReduceCmp            0      0.00%     55.35% # Type of FU issued
system.cpu0.iq.FU_type_0::SimdAes                   0      0.00%     55.35% # Type of FU issued
system.cpu0.iq.FU_type_0::SimdAesMix                0      0.00%     55.35% # Type of FU issued
system.cpu0.iq.FU_type_0::SimdSha1Hash              0      0.00%     55.35% # Type of FU issued
system.cpu0.iq.FU_type_0::SimdSha1Hash2             0      0.00%     55.35% # Type of FU issued
system.cpu0.iq.FU_type_0::SimdSha256Hash            0      0.00%     55.35% # Type of FU issued
system.cpu0.iq.FU_type_0::SimdSha256Hash2            0      0.00%     55.35% # Type of FU issued
system.cpu0.iq.FU_type_0::SimdShaSigma2             0      0.00%     55.35% # Type of FU issued
system.cpu0.iq.FU_type_0::SimdShaSigma3             0      0.00%     55.35% # Type of FU issued
system.cpu0.iq.FU_type_0::SimdPredAlu               0      0.00%     55.35% # Type of FU issued
system.cpu0.iq.FU_type_0::MemRead           370592878     32.51%     87.86% # Type of FU issued
system.cpu0.iq.FU_type_0::MemWrite          138401896     12.14%    100.00% # Type of FU issued
system.cpu0.iq.FU_type_0::FloatMemRead             18      0.00%    100.00% # Type of FU issued
system.cpu0.iq.FU_type_0::FloatMemWrite            23      0.00%    100.00% # Type of FU issued
system.cpu0.iq.FU_type_0::IprAccess                 0      0.00%    100.00% # Type of FU issued
system.cpu0.iq.FU_type_0::InstPrefetch              0      0.00%    100.00% # Type of FU issued
system.cpu0.iq.FU_type_0::total            1139948586                       # Type of FU issued
system.cpu0.iq.fp_alu_accesses                     74                       # Number of floating point alu accesses
system.cpu0.iq.fp_inst_queue_reads                145                       # Number of floating instruction queue reads
system.cpu0.iq.fp_inst_queue_wakeup_accesses           67                       # Number of floating instruction queue wakeup accesses
system.cpu0.iq.fp_inst_queue_writes                77                       # Number of floating instruction queue writes
system.cpu0.iq.fu_busy_cnt                    2210874                       # FU busy when requested
system.cpu0.iq.fu_busy_rate                  0.001939                       # FU busy rate (busy events/executed inst)
system.cpu0.iq.fu_full::No_OpClass                  0      0.00%      0.00% # attempts to use FU when none available
system.cpu0.iq.fu_full::IntAlu                 397801     17.99%     17.99% # attempts to use FU when none available
system.cpu0.iq.fu_full::IntMult                     0      0.00%     17.99% # attempts to use FU when none available
system.cpu0.iq.fu_full::IntDiv                      0      0.00%     17.99% # attempts to use FU when none available
system.cpu0.iq.fu_full::FloatAdd                    0      0.00%     17.99% # attempts to use FU when none available
system.cpu0.iq.fu_full::FloatCmp                    0      0.00%     17.99% # attempts to use FU when none available
system.cpu0.iq.fu_full::FloatCvt                    0      0.00%     17.99% # attempts to use FU when none available
system.cpu0.iq.fu_full::FloatMult                   0      0.00%     17.99% # attempts to use FU when none available
system.cpu0.iq.fu_full::FloatMultAcc                0      0.00%     17.99% # attempts to use FU when none available
system.cpu0.iq.fu_full::FloatDiv                    0      0.00%     17.99% # attempts to use FU when none available
system.cpu0.iq.fu_full::FloatMisc                   0      0.00%     17.99% # attempts to use FU when none available
system.cpu0.iq.fu_full::FloatSqrt                   0      0.00%     17.99% # attempts to use FU when none available
system.cpu0.iq.fu_full::SimdAdd                     0      0.00%     17.99% # attempts to use FU when none available
system.cpu0.iq.fu_full::SimdAddAcc                  0      0.00%     17.99% # attempts to use FU when none available
system.cpu0.iq.fu_full::SimdAlu                     0      0.00%     17.99% # attempts to use FU when none available
system.cpu0.iq.fu_full::SimdCmp                     0      0.00%     17.99% # attempts to use FU when none available
system.cpu0.iq.fu_full::SimdCvt                     0      0.00%     17.99% # attempts to use FU when none available
system.cpu0.iq.fu_full::SimdMisc                    0      0.00%     17.99% # attempts to use FU when none available
system.cpu0.iq.fu_full::SimdMult                    0      0.00%     17.99% # attempts to use FU when none available
system.cpu0.iq.fu_full::SimdMultAcc                 0      0.00%     17.99% # attempts to use FU when none available
system.cpu0.iq.fu_full::SimdShift                   0      0.00%     17.99% # attempts to use FU when none available
system.cpu0.iq.fu_full::SimdShiftAcc                0      0.00%     17.99% # attempts to use FU when none available
system.cpu0.iq.fu_full::SimdDiv                     0      0.00%     17.99% # attempts to use FU when none available
system.cpu0.iq.fu_full::SimdSqrt                    0      0.00%     17.99% # attempts to use FU when none available
system.cpu0.iq.fu_full::SimdFloatAdd                0      0.00%     17.99% # attempts to use FU when none available
system.cpu0.iq.fu_full::SimdFloatAlu                0      0.00%     17.99% # attempts to use FU when none available
system.cpu0.iq.fu_full::SimdFloatCmp                0      0.00%     17.99% # attempts to use FU when none available
system.cpu0.iq.fu_full::SimdFloatCvt                0      0.00%     17.99% # attempts to use FU when none available
system.cpu0.iq.fu_full::SimdFloatDiv                0      0.00%     17.99% # attempts to use FU when none available
system.cpu0.iq.fu_full::SimdFloatMisc               0      0.00%     17.99% # attempts to use FU when none available
system.cpu0.iq.fu_full::SimdFloatMult               0      0.00%     17.99% # attempts to use FU when none available
system.cpu0.iq.fu_full::SimdFloatMultAcc            0      0.00%     17.99% # attempts to use FU when none available
system.cpu0.iq.fu_full::SimdFloatSqrt               0      0.00%     17.99% # attempts to use FU when none available
system.cpu0.iq.fu_full::SimdReduceAdd               0      0.00%     17.99% # attempts to use FU when none available
system.cpu0.iq.fu_full::SimdReduceAlu               0      0.00%     17.99% # attempts to use FU when none available
system.cpu0.iq.fu_full::SimdReduceCmp               0      0.00%     17.99% # attempts to use FU when none available
system.cpu0.iq.fu_full::SimdFloatReduceAdd            0      0.00%     17.99% # attempts to use FU when none available
system.cpu0.iq.fu_full::SimdFloatReduceCmp            0      0.00%     17.99% # attempts to use FU when none available
system.cpu0.iq.fu_full::SimdAes                     0      0.00%     17.99% # attempts to use FU when none available
system.cpu0.iq.fu_full::SimdAesMix                  0      0.00%     17.99% # attempts to use FU when none available
system.cpu0.iq.fu_full::SimdSha1Hash                0      0.00%     17.99% # attempts to use FU when none available
system.cpu0.iq.fu_full::SimdSha1Hash2               0      0.00%     17.99% # attempts to use FU when none available
system.cpu0.iq.fu_full::SimdSha256Hash              0      0.00%     17.99% # attempts to use FU when none available
system.cpu0.iq.fu_full::SimdSha256Hash2             0      0.00%     17.99% # attempts to use FU when none available
system.cpu0.iq.fu_full::SimdShaSigma2               0      0.00%     17.99% # attempts to use FU when none available
system.cpu0.iq.fu_full::SimdShaSigma3               0      0.00%     17.99% # attempts to use FU when none available
system.cpu0.iq.fu_full::SimdPredAlu                 0      0.00%     17.99% # attempts to use FU when none available
system.cpu0.iq.fu_full::MemRead               1590920     71.96%     89.95% # attempts to use FU when none available
system.cpu0.iq.fu_full::MemWrite               222150     10.05%    100.00% # attempts to use FU when none available
system.cpu0.iq.fu_full::FloatMemRead                0      0.00%    100.00% # attempts to use FU when none available
system.cpu0.iq.fu_full::FloatMemWrite               3      0.00%    100.00% # attempts to use FU when none available
system.cpu0.iq.fu_full::IprAccess                   0      0.00%    100.00% # attempts to use FU when none available
system.cpu0.iq.fu_full::InstPrefetch                0      0.00%    100.00% # attempts to use FU when none available
system.cpu0.iq.int_alu_accesses            1138532473                       # Number of integer alu accesses
system.cpu0.iq.int_inst_queue_reads        4222826934                       # Number of integer instruction queue reads
system.cpu0.iq.int_inst_queue_wakeup_accesses   1123462492                       # Number of integer instruction queue wakeup accesses
system.cpu0.iq.int_inst_queue_writes       1242354806                       # Number of integer instruction queue writes
system.cpu0.iq.iqInstsAdded                1141982028                       # Number of instructions added to the IQ (excludes non-spec)
system.cpu0.iq.iqInstsIssued               1139948586                       # Number of instructions issued
system.cpu0.iq.iqNonSpecInstsAdded            5442333                       # Number of non-speculative instructions added to the IQ
system.cpu0.iq.iqSquashedInstsExamined       94916868                       # Number of squashed instructions iterated over during squash; mainly for profiling
system.cpu0.iq.iqSquashedInstsIssued           126499                       # Number of squashed instructions issued
system.cpu0.iq.iqSquashedNonSpecRemoved           916                       # Number of squashed non-spec instructions that were removed
system.cpu0.iq.iqSquashedOperandsExamined     25875358                       # Number of squashed operands that are examined and possibly removed from graph
system.cpu0.iq.issued_per_cycle::samples   1940592535                       # Number of insts issued each cycle
system.cpu0.iq.issued_per_cycle::mean        0.587423                       # Number of insts issued each cycle
system.cpu0.iq.issued_per_cycle::stdev       0.806660                       # Number of insts issued each cycle
system.cpu0.iq.issued_per_cycle::underflows            0      0.00%      0.00% # Number of insts issued each cycle
system.cpu0.iq.issued_per_cycle::0         1108446574     57.12%     57.12% # Number of insts issued each cycle
system.cpu0.iq.issued_per_cycle::1          587741157     30.29%     87.41% # Number of insts issued each cycle
system.cpu0.iq.issued_per_cycle::2          197734347     10.19%     97.60% # Number of insts issued each cycle
system.cpu0.iq.issued_per_cycle::3           35734902      1.84%     99.44% # Number of insts issued each cycle
system.cpu0.iq.issued_per_cycle::4            6952491      0.36%     99.79% # Number of insts issued each cycle
system.cpu0.iq.issued_per_cycle::5            2718888      0.14%     99.93% # Number of insts issued each cycle
system.cpu0.iq.issued_per_cycle::6             860257      0.04%     99.98% # Number of insts issued each cycle
system.cpu0.iq.issued_per_cycle::7             263269      0.01%     99.99% # Number of insts issued each cycle
system.cpu0.iq.issued_per_cycle::8             140650      0.01%    100.00% # Number of insts issued each cycle
system.cpu0.iq.issued_per_cycle::overflows            0      0.00%    100.00% # Number of insts issued each cycle
system.cpu0.iq.issued_per_cycle::min_value            0                       # Number of insts issued each cycle
system.cpu0.iq.issued_per_cycle::max_value            8                       # Number of insts issued each cycle
system.cpu0.iq.issued_per_cycle::total     1940592535                       # Number of insts issued each cycle
system.cpu0.iq.rate                          0.533886                       # Inst issue rate
system.cpu0.iq.vec_alu_accesses                     0                       # Number of vector alu accesses
system.cpu0.iq.vec_inst_queue_reads                 0                       # Number of vector instruction queue reads
system.cpu0.iq.vec_inst_queue_wakeup_accesses            0                       # Number of vector instruction queue wakeup accesses
system.cpu0.iq.vec_inst_queue_writes                0                       # Number of vector instruction queue writes
system.cpu0.itb.accesses                            0                       # DTB accesses
system.cpu0.itb.hits                                0                       # DTB hits
system.cpu0.itb.misses                              0                       # DTB misses
system.cpu0.itb.read_accesses                       0                       # DTB read accesses
system.cpu0.itb.read_hits                           0                       # DTB read hits
system.cpu0.itb.read_misses                         0                       # DTB read misses
system.cpu0.itb.write_accesses                      0                       # DTB write accesses
system.cpu0.itb.write_hits                          0                       # DTB write hits
system.cpu0.itb.write_misses                        0                       # DTB write misses
system.cpu0.memDep0.conflictingLoads         16649263                       # Number of conflicting loads.
system.cpu0.memDep0.conflictingStores         3088375                       # Number of conflicting stores.
system.cpu0.memDep0.insertedLoads           368475080                       # Number of loads inserted to the mem dependence unit.
system.cpu0.memDep0.insertedStores          141288855                       # Number of stores inserted to the mem dependence unit.
system.cpu0.misc_regfile_reads                   1518                       # number of misc regfile reads
system.cpu0.misc_regfile_writes                    30                       # number of misc regfile writes
system.cpu0.numCycles                      2135191515                       # number of cpu cycles simulated
system.cpu0.numWorkItemsCompleted                   0                       # number of work items this cpu completed
system.cpu0.numWorkItemsStarted                     0                       # number of work items this cpu started
system.cpu0.quiesceCycles                     4369675                       # Total number of cycles that CPU has spent quiesced or waiting for an interrupt
system.cpu0.rename.BlockCycles              320309053                       # Number of cycles rename is blocking
system.cpu0.rename.CommittedMaps            670577792                       # Number of HB maps that are committed
system.cpu0.rename.IQFullEvents              12391896                       # Number of times rename has blocked due to IQ full
system.cpu0.rename.IdleCycles               753962791                       # Number of cycles rename is idle
system.cpu0.rename.LQFullEvents              12628160                       # Number of times rename has blocked due to LQ full
system.cpu0.rename.ROBFullEvents                63962                       # Number of times rename has blocked due to ROB full
system.cpu0.rename.RenameLookups           1419193941                       # Number of register rename lookups that rename has made
system.cpu0.rename.RenamedInsts            1162854715                       # Number of instructions processed by rename
system.cpu0.rename.RenamedOperands          748617543                       # Number of destination operands rename has renamed
system.cpu0.rename.RunCycles                815601882                       # Number of cycles rename is running
system.cpu0.rename.SQFullEvents              14614621                       # Number of times rename has blocked due to SQ full
system.cpu0.rename.SquashCycles              10485060                       # Number of cycles rename is squashing
system.cpu0.rename.UnblockCycles             39937239                       # Number of cycles rename is unblocking
system.cpu0.rename.UndoneMaps                78039746                       # Number of HB maps that are undone due to squashing
system.cpu0.rename.fp_rename_lookups               56                       # Number of floating rename lookups
system.cpu0.rename.int_rename_lookups      1419193885                       # Number of integer rename lookups
system.cpu0.rename.serializeStallCycles        296510                       # count of cycles rename stalled for serializing inst
system.cpu0.rename.serializingInsts              4728                       # count of serializing insts renamed
system.cpu0.rename.skidInsts                 25953322                       # count of insts added to the skid buffer
system.cpu0.rename.tempSerializingInsts          4728                       # count of temporary serializing insts renamed
system.cpu0.rob.rob_reads                  3035085844                       # The number of ROB reads
system.cpu0.rob.rob_writes                 2313924507                       # The number of ROB writes
system.cpu0.timesIdled                       22603011                       # Number of times that the entire CPU went into an idle state and unscheduled itself
system.cpu0.workload.numSyscalls                 1474                       # Number of system calls
system.cpu1.branchPred.BTBCorrect                   0                       # Number of correct BTB predictions (this stat may not work properly.
system.cpu1.branchPred.BTBHitPct            93.311961                       # BTB Hit Percentage
system.cpu1.branchPred.BTBHits                9223529                       # Number of BTB hits
system.cpu1.branchPred.BTBLookups             9884616                       # Number of BTB lookups
system.cpu1.branchPred.RASInCorrect                 0                       # Number of incorrect RAS predictions.
system.cpu1.branchPred.condIncorrect          1660013                       # Number of conditional branches incorrect
system.cpu1.branchPred.condPredicted         17727101                       # Number of conditional branches predicted
system.cpu1.branchPred.indirectHits            331614                       # Number of indirect target hits.
system.cpu1.branchPred.indirectLookups         623207                       # Number of indirect predictor lookups.
system.cpu1.branchPred.indirectMisses          291593                       # Number of indirect misses.
system.cpu1.branchPred.lookups               19507885                       # Number of BP lookups
system.cpu1.branchPred.usedRAS                      0                       # Number of times the RAS was used to get a target.
system.cpu1.branchPredindirectMispredicted         5081                       # Number of mispredicted indirect branches.
system.cpu1.commit.amos                       1811197                       # Number of atomic instructions committed
system.cpu1.commit.branchMispredicts           951964                       # The number of times a branch was mispredicted
system.cpu1.commit.branches                  12200900                       # Number of branches committed
system.cpu1.commit.bw_lim_events              1335828                       # number cycles where commit BW limit reached
system.cpu1.commit.commitNonSpecStalls        5434262                       # The number of times commit has been forced to stall to communicate backwards
system.cpu1.commit.commitSquashedInsts       19464241                       # The number of squashed insts skipped by commit
system.cpu1.commit.committedInsts            55068939                       # Number of instructions committed
system.cpu1.commit.committedOps              56880311                       # Number of ops (including micro ops) committed
system.cpu1.commit.committed_per_cycle::samples    345764938                       # Number of insts commited each cycle
system.cpu1.commit.committed_per_cycle::mean     0.164506                       # Number of insts commited each cycle
system.cpu1.commit.committed_per_cycle::stdev     0.809411                       # Number of insts commited each cycle
system.cpu1.commit.committed_per_cycle::underflows            0      0.00%      0.00% # Number of insts commited each cycle
system.cpu1.commit.committed_per_cycle::0    322730377     93.34%     93.34% # Number of insts commited each cycle
system.cpu1.commit.committed_per_cycle::1     11306523      3.27%     96.61% # Number of insts commited each cycle
system.cpu1.commit.committed_per_cycle::2      3597353      1.04%     97.65% # Number of insts commited each cycle
system.cpu1.commit.committed_per_cycle::3      3612961      1.04%     98.69% # Number of insts commited each cycle
system.cpu1.commit.committed_per_cycle::4      1002026      0.29%     98.98% # Number of insts commited each cycle
system.cpu1.commit.committed_per_cycle::5       354625      0.10%     99.09% # Number of insts commited each cycle
system.cpu1.commit.committed_per_cycle::6      1704369      0.49%     99.58% # Number of insts commited each cycle
system.cpu1.commit.committed_per_cycle::7       120876      0.03%     99.61% # Number of insts commited each cycle
system.cpu1.commit.committed_per_cycle::8      1335828      0.39%    100.00% # Number of insts commited each cycle
system.cpu1.commit.committed_per_cycle::overflows            0      0.00%    100.00% # Number of insts commited each cycle
system.cpu1.commit.committed_per_cycle::min_value            0                       # Number of insts commited each cycle
system.cpu1.commit.committed_per_cycle::max_value            8                       # Number of insts commited each cycle
system.cpu1.commit.committed_per_cycle::total    345764938                       # Number of insts commited each cycle
system.cpu1.commit.fp_insts                        12                       # Number of committed floating point instructions.
system.cpu1.commit.function_calls              502216                       # Number of function calls committed.
system.cpu1.commit.int_insts                 52966276                       # Number of committed integer instructions.
system.cpu1.commit.loads                     16124648                       # Number of loads committed
system.cpu1.commit.membars                    3622519                       # Number of memory barriers committed
system.cpu1.commit.op_class_0::No_OpClass      3622519      6.37%      6.37% # Class of committed instruction
system.cpu1.commit.op_class_0::IntAlu        32006019     56.27%     62.64% # Class of committed instruction
system.cpu1.commit.op_class_0::IntMult             43      0.00%     62.64% # Class of committed instruction
system.cpu1.commit.op_class_0::IntDiv              86      0.00%     62.64% # Class of committed instruction
system.cpu1.commit.op_class_0::FloatAdd             0      0.00%     62.64% # Class of committed instruction
system.cpu1.commit.op_class_0::FloatCmp             0      0.00%     62.64% # Class of committed instruction
system.cpu1.commit.op_class_0::FloatCvt             0      0.00%     62.64% # Class of committed instruction
system.cpu1.commit.op_class_0::FloatMult            0      0.00%     62.64% # Class of committed instruction
system.cpu1.commit.op_class_0::FloatMultAcc            0      0.00%     62.64% # Class of committed instruction
system.cpu1.commit.op_class_0::FloatDiv             0      0.00%     62.64% # Class of committed instruction
system.cpu1.commit.op_class_0::FloatMisc            0      0.00%     62.64% # Class of committed instruction
system.cpu1.commit.op_class_0::FloatSqrt            0      0.00%     62.64% # Class of committed instruction
system.cpu1.commit.op_class_0::SimdAdd              0      0.00%     62.64% # Class of committed instruction
system.cpu1.commit.op_class_0::SimdAddAcc            0      0.00%     62.64% # Class of committed instruction
system.cpu1.commit.op_class_0::SimdAlu              0      0.00%     62.64% # Class of committed instruction
system.cpu1.commit.op_class_0::SimdCmp              0      0.00%     62.64% # Class of committed instruction
system.cpu1.commit.op_class_0::SimdCvt              0      0.00%     62.64% # Class of committed instruction
system.cpu1.commit.op_class_0::SimdMisc             0      0.00%     62.64% # Class of committed instruction
system.cpu1.commit.op_class_0::SimdMult             0      0.00%     62.64% # Class of committed instruction
system.cpu1.commit.op_class_0::SimdMultAcc            0      0.00%     62.64% # Class of committed instruction
system.cpu1.commit.op_class_0::SimdShift            0      0.00%     62.64% # Class of committed instruction
system.cpu1.commit.op_class_0::SimdShiftAcc            0      0.00%     62.64% # Class of committed instruction
system.cpu1.commit.op_class_0::SimdDiv              0      0.00%     62.64% # Class of committed instruction
system.cpu1.commit.op_class_0::SimdSqrt             0      0.00%     62.64% # Class of committed instruction
system.cpu1.commit.op_class_0::SimdFloatAdd            0      0.00%     62.64% # Class of committed instruction
system.cpu1.commit.op_class_0::SimdFloatAlu            0      0.00%     62.64% # Class of committed instruction
system.cpu1.commit.op_class_0::SimdFloatCmp            0      0.00%     62.64% # Class of committed instruction
system.cpu1.commit.op_class_0::SimdFloatCvt            0      0.00%     62.64% # Class of committed instruction
system.cpu1.commit.op_class_0::SimdFloatDiv            0      0.00%     62.64% # Class of committed instruction
system.cpu1.commit.op_class_0::SimdFloatMisc            0      0.00%     62.64% # Class of committed instruction
system.cpu1.commit.op_class_0::SimdFloatMult            0      0.00%     62.64% # Class of committed instruction
system.cpu1.commit.op_class_0::SimdFloatMultAcc            0      0.00%     62.64% # Class of committed instruction
system.cpu1.commit.op_class_0::SimdFloatSqrt            0      0.00%     62.64% # Class of committed instruction
system.cpu1.commit.op_class_0::SimdReduceAdd            0      0.00%     62.64% # Class of committed instruction
system.cpu1.commit.op_class_0::SimdReduceAlu            0      0.00%     62.64% # Class of committed instruction
system.cpu1.commit.op_class_0::SimdReduceCmp            0      0.00%     62.64% # Class of committed instruction
system.cpu1.commit.op_class_0::SimdFloatReduceAdd            0      0.00%     62.64% # Class of committed instruction
system.cpu1.commit.op_class_0::SimdFloatReduceCmp            0      0.00%     62.64% # Class of committed instruction
system.cpu1.commit.op_class_0::SimdAes              0      0.00%     62.64% # Class of committed instruction
system.cpu1.commit.op_class_0::SimdAesMix            0      0.00%     62.64% # Class of committed instruction
system.cpu1.commit.op_class_0::SimdSha1Hash            0      0.00%     62.64% # Class of committed instruction
system.cpu1.commit.op_class_0::SimdSha1Hash2            0      0.00%     62.64% # Class of committed instruction
system.cpu1.commit.op_class_0::SimdSha256Hash            0      0.00%     62.64% # Class of committed instruction
system.cpu1.commit.op_class_0::SimdSha256Hash2            0      0.00%     62.64% # Class of committed instruction
system.cpu1.commit.op_class_0::SimdShaSigma2            0      0.00%     62.64% # Class of committed instruction
system.cpu1.commit.op_class_0::SimdShaSigma3            0      0.00%     62.64% # Class of committed instruction
system.cpu1.commit.op_class_0::SimdPredAlu            0      0.00%     62.64% # Class of committed instruction
system.cpu1.commit.op_class_0::MemRead       17935845     31.53%     94.17% # Class of committed instruction
system.cpu1.commit.op_class_0::MemWrite       3315787      5.83%    100.00% # Class of committed instruction
system.cpu1.commit.op_class_0::FloatMemRead            0      0.00%    100.00% # Class of committed instruction
system.cpu1.commit.op_class_0::FloatMemWrite           12      0.00%    100.00% # Class of committed instruction
system.cpu1.commit.op_class_0::IprAccess            0      0.00%    100.00% # Class of committed instruction
system.cpu1.commit.op_class_0::InstPrefetch            0      0.00%    100.00% # Class of committed instruction
system.cpu1.commit.op_class_0::total         56880311                       # Class of committed instruction
system.cpu1.commit.refs                      21251644                       # Number of memory references committed
system.cpu1.commit.swp_count                        0                       # Number of s/w prefetches committed
system.cpu1.commit.vec_insts                        0                       # Number of committed Vector instructions.
system.cpu1.committedInsts                   55068939                       # Number of Instructions Simulated
system.cpu1.committedOps                     56880311                       # Number of Ops (including micro ops) Simulated
system.cpu1.cpi                              6.342345                       # CPI: Cycles Per Instruction
system.cpu1.cpi_total                        6.342345                       # CPI: Total CPI of All Threads
system.cpu1.decode.BlockedCycles            307776808                       # Number of cycles decode is blocked
system.cpu1.decode.BranchMispred               714121                       # Number of times decode detected a branch misprediction
system.cpu1.decode.BranchResolved             8368773                       # Number of times decode resolved a branch
system.cpu1.decode.DecodedInsts              81684786                       # Number of instructions handled by decode
system.cpu1.decode.IdleCycles                 9685065                       # Number of cycles decode is idle
system.cpu1.decode.RunCycles                 26091707                       # Number of cycles decode is running
system.cpu1.decode.SquashCycles                952567                       # Number of cycles decode is squashing
system.cpu1.decode.SquashedInsts              1077450                       # Number of squashed instructions handled by decode
system.cpu1.decode.UnblockCycles              4325567                       # Number of cycles decode is unblocking
system.cpu1.dtb.accesses                            0                       # DTB accesses
system.cpu1.dtb.hits                                0                       # DTB hits
system.cpu1.dtb.misses                              0                       # DTB misses
system.cpu1.dtb.read_accesses                       0                       # DTB read accesses
system.cpu1.dtb.read_hits                           0                       # DTB read hits
system.cpu1.dtb.read_misses                         0                       # DTB read misses
system.cpu1.dtb.write_accesses                      0                       # DTB write accesses
system.cpu1.dtb.write_hits                          0                       # DTB write hits
system.cpu1.dtb.write_misses                        0                       # DTB write misses
system.cpu1.fetch.Branches                   19507885                       # Number of branches that fetch encountered
system.cpu1.fetch.CacheLines                  9294230                       # Number of cache lines fetched
system.cpu1.fetch.Cycles                    336521342                       # Number of cycles fetch has run and was not squashing or blocked
system.cpu1.fetch.IcacheSquashes                85125                       # Number of outstanding Icache misses that were squashed
system.cpu1.fetch.IcacheWaitRetryStallCycles           11                       # Number of stall cycles due to full MSHR
system.cpu1.fetch.Insts                      92999080                       # Number of instructions fetch has processed
system.cpu1.fetch.MiscStallCycles                   2                       # Number of cycles fetch has spent waiting on interrupts, or bad addresses, or out of MSHRs
system.cpu1.fetch.SquashCycles                3321232                       # Number of cycles fetch has spent squashing
system.cpu1.fetch.branchRate                 0.055854                       # Number of branch fetches per cycle
system.cpu1.fetch.icacheStallCycles          10649743                       # Number of cycles fetch is stalled on an Icache miss
system.cpu1.fetch.predictedBranches           9555143                       # Number of branches that fetch has predicted taken
system.cpu1.fetch.rate                       0.266270                       # Number of inst fetches per cycle
system.cpu1.fetch.rateDist::samples         348831714                       # Number of instructions fetched each cycle (Total)
system.cpu1.fetch.rateDist::mean             0.276597                       # Number of instructions fetched each cycle (Total)
system.cpu1.fetch.rateDist::stdev            0.771810                       # Number of instructions fetched each cycle (Total)
system.cpu1.fetch.rateDist::underflows              0      0.00%      0.00% # Number of instructions fetched each cycle (Total)
system.cpu1.fetch.rateDist::0               293833911     84.23%     84.23% # Number of instructions fetched each cycle (Total)
system.cpu1.fetch.rateDist::1                30371635      8.71%     92.94% # Number of instructions fetched each cycle (Total)
system.cpu1.fetch.rateDist::2                14597369      4.18%     97.13% # Number of instructions fetched each cycle (Total)
system.cpu1.fetch.rateDist::3                 6080214      1.74%     98.87% # Number of instructions fetched each cycle (Total)
system.cpu1.fetch.rateDist::4                 1986063      0.57%     99.44% # Number of instructions fetched each cycle (Total)
system.cpu1.fetch.rateDist::5                 1047569      0.30%     99.74% # Number of instructions fetched each cycle (Total)
system.cpu1.fetch.rateDist::6                  911459      0.26%    100.00% # Number of instructions fetched each cycle (Total)
system.cpu1.fetch.rateDist::7                     123      0.00%    100.00% # Number of instructions fetched each cycle (Total)
system.cpu1.fetch.rateDist::8                    3371      0.00%    100.00% # Number of instructions fetched each cycle (Total)
system.cpu1.fetch.rateDist::overflows               0      0.00%    100.00% # Number of instructions fetched each cycle (Total)
system.cpu1.fetch.rateDist::min_value               0                       # Number of instructions fetched each cycle (Total)
system.cpu1.fetch.rateDist::max_value               8                       # Number of instructions fetched each cycle (Total)
system.cpu1.fetch.rateDist::total           348831714                       # Number of instructions fetched each cycle (Total)
system.cpu1.fp_regfile_reads                       12                       # number of floating regfile reads
system.cpu1.idleCycles                         434489                       # Total number of cycles that the CPU has spent unscheduled due to idling
system.cpu1.iew.branchMispredicts             1016770                       # Number of branch mispredicts detected at execute
system.cpu1.iew.exec_branches                14529917                       # Number of branches executed
system.cpu1.iew.exec_nop                            0                       # number of nop insts executed
system.cpu1.iew.exec_rate                    0.183791                       # Inst execution rate
system.cpu1.iew.exec_refs                    22609447                       # number of memory reference insts executed
system.cpu1.iew.exec_stores                   5234479                       # Number of stores executed
system.cpu1.iew.exec_swp                            0                       # number of swp insts executed
system.cpu1.iew.iewBlockCycles              264929650                       # Number of cycles IEW is blocking
system.cpu1.iew.iewDispLoadInsts             21550363                       # Number of dispatched load instructions
system.cpu1.iew.iewDispNonSpecInsts           2538161                       # Number of dispatched non-speculative instructions
system.cpu1.iew.iewDispSquashedInsts          1337722                       # Number of squashed instructions skipped by dispatch
system.cpu1.iew.iewDispStoreInsts             6777229                       # Number of dispatched store instructions
system.cpu1.iew.iewDispatchedInsts           76336464                       # Number of instructions dispatched to IQ
system.cpu1.iew.iewExecLoadInsts             17374968                       # Number of load instructions executed
system.cpu1.iew.iewExecSquashedInsts           803952                       # Number of squashed instructions skipped in execute
system.cpu1.iew.iewExecutedInsts             64192146                       # Number of executed instructions
system.cpu1.iew.iewIQFullEvents               1765361                       # Number of times the IQ has become full, causing a stall
system.cpu1.iew.iewIdleCycles                       0                       # Number of cycles IEW is idle
system.cpu1.iew.iewLSQFullEvents              2498310                       # Number of times the LSQ has become full, causing a stall
system.cpu1.iew.iewSquashCycles                952567                       # Number of cycles IEW is squashing
system.cpu1.iew.iewUnblockCycles              6329951                       # Number of cycles IEW is unblocking
system.cpu1.iew.lsq.thread0.blockedLoads            0                       # Number of blocked loads due to partial load-store forwarding
system.cpu1.iew.lsq.thread0.cacheBlocked        21736                       # Number of times an access to memory failed due to the cache being blocked
system.cpu1.iew.lsq.thread0.forwLoads          348064                       # Number of loads that had data forwarded from stores
system.cpu1.iew.lsq.thread0.ignoredResponses         9689                       # Number of memory responses ignored because the instruction is squashed
system.cpu1.iew.lsq.thread0.invAddrLoads            0                       # Number of loads ignored due to an invalid address
system.cpu1.iew.lsq.thread0.invAddrSwpfs            0                       # Number of software prefetches ignored due to an invalid address
system.cpu1.iew.lsq.thread0.memOrderViolation          672                       # Number of memory ordering violations
system.cpu1.iew.lsq.thread0.rescheduledLoads         2749                       # Number of loads that were rescheduled
system.cpu1.iew.lsq.thread0.squashedLoads      5425715                       # Number of loads squashed
system.cpu1.iew.lsq.thread0.squashedStores      1650233                       # Number of stores squashed
system.cpu1.iew.memOrderViolationEvents           672                       # Number of memory order violations
system.cpu1.iew.predictedNotTakenIncorrect       206390                       # Number of branches that were predicted not taken incorrectly
system.cpu1.iew.predictedTakenIncorrect        810380                       # Number of branches that were predicted taken incorrectly
system.cpu1.iew.wb_consumers                 37336737                       # num instructions consuming a value
system.cpu1.iew.wb_count                     63753705                       # cumulative count of insts written-back
system.cpu1.iew.wb_fanout                    0.849002                       # average fanout of values written-back
system.cpu1.iew.wb_producers                 31698954                       # num instructions producing a value
system.cpu1.iew.wb_rate                      0.182536                       # insts written-back per cycle
system.cpu1.iew.wb_sent                      63774049                       # cumulative count of insts sent to commit
system.cpu1.int_regfile_reads                80050568                       # number of integer regfile reads
system.cpu1.int_regfile_writes               42482308                       # number of integer regfile writes
system.cpu1.ipc                              0.157670                       # IPC: Instructions Per Cycle
system.cpu1.ipc_total                        0.157670                       # IPC: Total IPC of All Threads
system.cpu1.iq.FU_type_0::No_OpClass          3622623      5.57%      5.57% # Type of FU issued
system.cpu1.iq.FU_type_0::IntAlu             38613466     59.41%     64.98% # Type of FU issued
system.cpu1.iq.FU_type_0::IntMult                  46      0.00%     64.98% # Type of FU issued
system.cpu1.iq.FU_type_0::IntDiv                   88      0.00%     64.98% # Type of FU issued
system.cpu1.iq.FU_type_0::FloatAdd                  0      0.00%     64.98% # Type of FU issued
system.cpu1.iq.FU_type_0::FloatCmp                  0      0.00%     64.98% # Type of FU issued
system.cpu1.iq.FU_type_0::FloatCvt                  0      0.00%     64.98% # Type of FU issued
system.cpu1.iq.FU_type_0::FloatMult                 0      0.00%     64.98% # Type of FU issued
system.cpu1.iq.FU_type_0::FloatMultAcc              0      0.00%     64.98% # Type of FU issued
system.cpu1.iq.FU_type_0::FloatDiv                  0      0.00%     64.98% # Type of FU issued
system.cpu1.iq.FU_type_0::FloatMisc                 0      0.00%     64.98% # Type of FU issued
system.cpu1.iq.FU_type_0::FloatSqrt                 0      0.00%     64.98% # Type of FU issued
system.cpu1.iq.FU_type_0::SimdAdd                   0      0.00%     64.98% # Type of FU issued
system.cpu1.iq.FU_type_0::SimdAddAcc                0      0.00%     64.98% # Type of FU issued
system.cpu1.iq.FU_type_0::SimdAlu                   0      0.00%     64.98% # Type of FU issued
system.cpu1.iq.FU_type_0::SimdCmp                   0      0.00%     64.98% # Type of FU issued
system.cpu1.iq.FU_type_0::SimdCvt                   0      0.00%     64.98% # Type of FU issued
system.cpu1.iq.FU_type_0::SimdMisc                  0      0.00%     64.98% # Type of FU issued
system.cpu1.iq.FU_type_0::SimdMult                  0      0.00%     64.98% # Type of FU issued
system.cpu1.iq.FU_type_0::SimdMultAcc               0      0.00%     64.98% # Type of FU issued
system.cpu1.iq.FU_type_0::SimdShift                 0      0.00%     64.98% # Type of FU issued
system.cpu1.iq.FU_type_0::SimdShiftAcc              0      0.00%     64.98% # Type of FU issued
system.cpu1.iq.FU_type_0::SimdDiv                   0      0.00%     64.98% # Type of FU issued
system.cpu1.iq.FU_type_0::SimdSqrt                  0      0.00%     64.98% # Type of FU issued
system.cpu1.iq.FU_type_0::SimdFloatAdd              0      0.00%     64.98% # Type of FU issued
system.cpu1.iq.FU_type_0::SimdFloatAlu              0      0.00%     64.98% # Type of FU issued
system.cpu1.iq.FU_type_0::SimdFloatCmp              0      0.00%     64.98% # Type of FU issued
system.cpu1.iq.FU_type_0::SimdFloatCvt              0      0.00%     64.98% # Type of FU issued
system.cpu1.iq.FU_type_0::SimdFloatDiv              0      0.00%     64.98% # Type of FU issued
system.cpu1.iq.FU_type_0::SimdFloatMisc             0      0.00%     64.98% # Type of FU issued
system.cpu1.iq.FU_type_0::SimdFloatMult             0      0.00%     64.98% # Type of FU issued
system.cpu1.iq.FU_type_0::SimdFloatMultAcc            0      0.00%     64.98% # Type of FU issued
system.cpu1.iq.FU_type_0::SimdFloatSqrt             0      0.00%     64.98% # Type of FU issued
system.cpu1.iq.FU_type_0::SimdReduceAdd             0      0.00%     64.98% # Type of FU issued
system.cpu1.iq.FU_type_0::SimdReduceAlu             0      0.00%     64.98% # Type of FU issued
system.cpu1.iq.FU_type_0::SimdReduceCmp             0      0.00%     64.98% # Type of FU issued
system.cpu1.iq.FU_type_0::SimdFloatReduceAdd            0      0.00%     64.98% # Type of FU issued
system.cpu1.iq.FU_type_0::SimdFloatReduceCmp            0      0.00%     64.98% # Type of FU issued
system.cpu1.iq.FU_type_0::SimdAes                   0      0.00%     64.98% # Type of FU issued
system.cpu1.iq.FU_type_0::SimdAesMix                0      0.00%     64.98% # Type of FU issued
system.cpu1.iq.FU_type_0::SimdSha1Hash              0      0.00%     64.98% # Type of FU issued
system.cpu1.iq.FU_type_0::SimdSha1Hash2             0      0.00%     64.98% # Type of FU issued
system.cpu1.iq.FU_type_0::SimdSha256Hash            0      0.00%     64.98% # Type of FU issued
system.cpu1.iq.FU_type_0::SimdSha256Hash2            0      0.00%     64.98% # Type of FU issued
system.cpu1.iq.FU_type_0::SimdShaSigma2             0      0.00%     64.98% # Type of FU issued
system.cpu1.iq.FU_type_0::SimdShaSigma3             0      0.00%     64.98% # Type of FU issued
system.cpu1.iq.FU_type_0::SimdPredAlu               0      0.00%     64.98% # Type of FU issued
system.cpu1.iq.FU_type_0::MemRead            19322299     29.73%     94.71% # Type of FU issued
system.cpu1.iq.FU_type_0::MemWrite            3437564      5.29%    100.00% # Type of FU issued
system.cpu1.iq.FU_type_0::FloatMemRead              0      0.00%    100.00% # Type of FU issued
system.cpu1.iq.FU_type_0::FloatMemWrite            12      0.00%    100.00% # Type of FU issued
system.cpu1.iq.FU_type_0::IprAccess                 0      0.00%    100.00% # Type of FU issued
system.cpu1.iq.FU_type_0::InstPrefetch              0      0.00%    100.00% # Type of FU issued
system.cpu1.iq.FU_type_0::total              64996098                       # Type of FU issued
system.cpu1.iq.fp_alu_accesses                     15                       # Number of floating point alu accesses
system.cpu1.iq.fp_inst_queue_reads                 27                       # Number of floating instruction queue reads
system.cpu1.iq.fp_inst_queue_wakeup_accesses           12                       # Number of floating instruction queue wakeup accesses
system.cpu1.iq.fp_inst_queue_writes                12                       # Number of floating instruction queue writes
system.cpu1.iq.fu_busy_cnt                    1948003                       # FU busy when requested
system.cpu1.iq.fu_busy_rate                  0.029971                       # FU busy rate (busy events/executed inst)
system.cpu1.iq.fu_full::No_OpClass                  0      0.00%      0.00% # attempts to use FU when none available
system.cpu1.iq.fu_full::IntAlu                 333511     17.12%     17.12% # attempts to use FU when none available
system.cpu1.iq.fu_full::IntMult                     0      0.00%     17.12% # attempts to use FU when none available
system.cpu1.iq.fu_full::IntDiv                      0      0.00%     17.12% # attempts to use FU when none available
system.cpu1.iq.fu_full::FloatAdd                    0      0.00%     17.12% # attempts to use FU when none available
system.cpu1.iq.fu_full::FloatCmp                    0      0.00%     17.12% # attempts to use FU when none available
system.cpu1.iq.fu_full::FloatCvt                    0      0.00%     17.12% # attempts to use FU when none available
system.cpu1.iq.fu_full::FloatMult                   0      0.00%     17.12% # attempts to use FU when none available
system.cpu1.iq.fu_full::FloatMultAcc                0      0.00%     17.12% # attempts to use FU when none available
system.cpu1.iq.fu_full::FloatDiv                    0      0.00%     17.12% # attempts to use FU when none available
system.cpu1.iq.fu_full::FloatMisc                   0      0.00%     17.12% # attempts to use FU when none available
system.cpu1.iq.fu_full::FloatSqrt                   0      0.00%     17.12% # attempts to use FU when none available
system.cpu1.iq.fu_full::SimdAdd                     0      0.00%     17.12% # attempts to use FU when none available
system.cpu1.iq.fu_full::SimdAddAcc                  0      0.00%     17.12% # attempts to use FU when none available
system.cpu1.iq.fu_full::SimdAlu                     0      0.00%     17.12% # attempts to use FU when none available
system.cpu1.iq.fu_full::SimdCmp                     0      0.00%     17.12% # attempts to use FU when none available
system.cpu1.iq.fu_full::SimdCvt                     0      0.00%     17.12% # attempts to use FU when none available
system.cpu1.iq.fu_full::SimdMisc                    0      0.00%     17.12% # attempts to use FU when none available
system.cpu1.iq.fu_full::SimdMult                    0      0.00%     17.12% # attempts to use FU when none available
system.cpu1.iq.fu_full::SimdMultAcc                 0      0.00%     17.12% # attempts to use FU when none available
system.cpu1.iq.fu_full::SimdShift                   0      0.00%     17.12% # attempts to use FU when none available
system.cpu1.iq.fu_full::SimdShiftAcc                0      0.00%     17.12% # attempts to use FU when none available
system.cpu1.iq.fu_full::SimdDiv                     0      0.00%     17.12% # attempts to use FU when none available
system.cpu1.iq.fu_full::SimdSqrt                    0      0.00%     17.12% # attempts to use FU when none available
system.cpu1.iq.fu_full::SimdFloatAdd                0      0.00%     17.12% # attempts to use FU when none available
system.cpu1.iq.fu_full::SimdFloatAlu                0      0.00%     17.12% # attempts to use FU when none available
system.cpu1.iq.fu_full::SimdFloatCmp                0      0.00%     17.12% # attempts to use FU when none available
system.cpu1.iq.fu_full::SimdFloatCvt                0      0.00%     17.12% # attempts to use FU when none available
system.cpu1.iq.fu_full::SimdFloatDiv                0      0.00%     17.12% # attempts to use FU when none available
system.cpu1.iq.fu_full::SimdFloatMisc               0      0.00%     17.12% # attempts to use FU when none available
system.cpu1.iq.fu_full::SimdFloatMult               0      0.00%     17.12% # attempts to use FU when none available
system.cpu1.iq.fu_full::SimdFloatMultAcc            0      0.00%     17.12% # attempts to use FU when none available
system.cpu1.iq.fu_full::SimdFloatSqrt               0      0.00%     17.12% # attempts to use FU when none available
system.cpu1.iq.fu_full::SimdReduceAdd               0      0.00%     17.12% # attempts to use FU when none available
system.cpu1.iq.fu_full::SimdReduceAlu               0      0.00%     17.12% # attempts to use FU when none available
system.cpu1.iq.fu_full::SimdReduceCmp               0      0.00%     17.12% # attempts to use FU when none available
system.cpu1.iq.fu_full::SimdFloatReduceAdd            0      0.00%     17.12% # attempts to use FU when none available
system.cpu1.iq.fu_full::SimdFloatReduceCmp            0      0.00%     17.12% # attempts to use FU when none available
system.cpu1.iq.fu_full::SimdAes                     0      0.00%     17.12% # attempts to use FU when none available
system.cpu1.iq.fu_full::SimdAesMix                  0      0.00%     17.12% # attempts to use FU when none available
system.cpu1.iq.fu_full::SimdSha1Hash                0      0.00%     17.12% # attempts to use FU when none available
system.cpu1.iq.fu_full::SimdSha1Hash2               0      0.00%     17.12% # attempts to use FU when none available
system.cpu1.iq.fu_full::SimdSha256Hash              0      0.00%     17.12% # attempts to use FU when none available
system.cpu1.iq.fu_full::SimdSha256Hash2             0      0.00%     17.12% # attempts to use FU when none available
system.cpu1.iq.fu_full::SimdShaSigma2               0      0.00%     17.12% # attempts to use FU when none available
system.cpu1.iq.fu_full::SimdShaSigma3               0      0.00%     17.12% # attempts to use FU when none available
system.cpu1.iq.fu_full::SimdPredAlu                 0      0.00%     17.12% # attempts to use FU when none available
system.cpu1.iq.fu_full::MemRead               1450232     74.45%     91.57% # attempts to use FU when none available
[...]
system.cpu1.dcache.ReadReq_avg_miss_latency::total 89226.412315                       # average ReadReq miss latency
system.cpu1.dcache.ReadReq_mshr_hits::.cpu1.data     85892992                       # number of ReadReq MSHR hits
system.cpu1.dcache.ReadReq_mshr_hits::total     85892992                       # number of ReadReq MSHR hits
system.cpu1.dcache.ReadReq_mshr_misses::.cpu1.data    124500480                       # number of ReadReq MSHR misses
system.cpu1.dcache.ReadReq_mshr_misses::total    124500480                       # number of ReadReq MSHR misses
system.cpu1.dcache.ReadReq_mshr_miss_latency::.cpu1.data 12415360355500                       # number of ReadReq MSHR miss cycles
system.cpu1.dcache.ReadReq_mshr_miss_latency::total 12415360355500                       # number of ReadReq MSHR miss cycles
system.cpu1.dcache.ReadReq_mshr_miss_rate::.cpu1.data     0.328959                       # mshr miss rate for ReadReq accesses
system.cpu1.dcache.ReadReq_mshr_miss_rate::total     0.328959                       # mshr miss rate for ReadReq accesses
system.cpu1.dcache.ReadReq_avg_mshr_miss_latency::.cpu1.data 99721.385456                       # average ReadReq mshr miss latency
system.cpu1.dcache.ReadReq_avg_mshr_miss_latency::total 99721.385456                       # average ReadReq mshr miss latency
system.cpu1.dcache.WriteReq_hits::.cpu1.data     18721169                       # number of WriteReq hits
system.cpu1.dcache.WriteReq_hits::total      18721169                       # number of WriteReq hits
system.cpu1.dcache.WriteReq_misses::.cpu1.data      7059425                       # number of WriteReq misses
system.cpu1.dcache.WriteReq_misses::total      7059425                       # number of WriteReq misses
system.cpu1.dcache.WriteReq_miss_latency::.cpu1.data 447536701758                       # number of WriteReq miss cycles
system.cpu1.dcache.WriteReq_miss_latency::total 447536701758                       # number of WriteReq miss cycles
system.cpu1.dcache.WriteReq_accesses::.cpu1.data     25780594                       # number of WriteReq accesses(hits+misses)
system.cpu1.dcache.WriteReq_accesses::total     25780594                       # number of WriteReq accesses(hits+misses)
system.cpu1.dcache.WriteReq_miss_rate::.cpu1.data     0.273827                       # miss rate for WriteReq accesses
system.cpu1.dcache.WriteReq_miss_rate::total     0.273827                       # miss rate for WriteReq accesses
system.cpu1.dcache.WriteReq_avg_miss_latency::.cpu1.data 63395.630913                       # average WriteReq miss latency
system.cpu1.dcache.WriteReq_avg_miss_latency::total 63395.630913                       # average WriteReq miss latency
system.cpu1.dcache.WriteReq_mshr_hits::.cpu1.data      5468523                       # number of WriteReq MSHR hits
system.cpu1.dcache.WriteReq_mshr_hits::total      5468523                       # number of WriteReq MSHR hits
system.cpu1.dcache.WriteReq_mshr_misses::.cpu1.data      1590902                       # number of WriteReq MSHR misses
system.cpu1.dcache.WriteReq_mshr_misses::total      1590902                       # number of WriteReq MSHR misses
system.cpu1.dcache.WriteReq_mshr_miss_latency::.cpu1.data  98968668445                       # number of WriteReq MSHR miss cycles
system.cpu1.dcache.WriteReq_mshr_miss_latency::total  98968668445                       # number of WriteReq MSHR miss cycles
system.cpu1.dcache.WriteReq_mshr_miss_rate::.cpu1.data     0.061709                       # mshr miss rate for WriteReq accesses
system.cpu1.dcache.WriteReq_mshr_miss_rate::total     0.061709                       # mshr miss rate for WriteReq accesses
system.cpu1.dcache.WriteReq_avg_mshr_miss_latency::.cpu1.data 62209.154583                       # average WriteReq mshr miss latency
system.cpu1.dcache.WriteReq_avg_mshr_miss_latency::total 62209.154583                       # average WriteReq mshr miss latency
system.cpu1.dcache.LoadLockedReq_hits::.cpu1.data         6809                       # number of LoadLockedReq hits
system.cpu1.dcache.LoadLockedReq_hits::total         6809                       # number of LoadLockedReq hits
system.cpu1.dcache.LoadLockedReq_misses::.cpu1.data         1526                       # number of LoadLockedReq misses
system.cpu1.dcache.LoadLockedReq_misses::total         1526                       # number of LoadLockedReq misses
system.cpu1.dcache.LoadLockedReq_miss_latency::.cpu1.data     78194500                       # number of LoadLockedReq miss cycles
system.cpu1.dcache.LoadLockedReq_miss_latency::total     78194500                       # number of LoadLockedReq miss cycles
system.cpu1.dcache.LoadLockedReq_accesses::.cpu1.data         8335                       # number of LoadLockedReq accesses(hits+misses)
system.cpu1.dcache.LoadLockedReq_accesses::total         8335                       # number of LoadLockedReq accesses(hits+misses)
system.cpu1.dcache.LoadLockedReq_miss_rate::.cpu1.data     0.183083                       # miss rate for LoadLockedReq accesses
system.cpu1.dcache.LoadLockedReq_miss_rate::total     0.183083                       # miss rate for LoadLockedReq accesses
system.cpu1.dcache.LoadLockedReq_avg_miss_latency::.cpu1.data 51241.480996                       # average LoadLockedReq miss latency
system.cpu1.dcache.LoadLockedReq_avg_miss_latency::total 51241.480996                       # average LoadLockedReq miss latency
system.cpu1.dcache.LoadLockedReq_mshr_hits::.cpu1.data         1352                       # number of LoadLockedReq MSHR hits
system.cpu1.dcache.LoadLockedReq_mshr_hits::total         1352                       # number of LoadLockedReq MSHR hits
system.cpu1.dcache.LoadLockedReq_mshr_misses::.cpu1.data          174                       # number of LoadLockedReq MSHR misses
system.cpu1.dcache.LoadLockedReq_mshr_misses::total          174                       # number of LoadLockedReq MSHR misses
system.cpu1.dcache.LoadLockedReq_mshr_miss_latency::.cpu1.data      1871000                       # number of LoadLockedReq MSHR miss cycles
system.cpu1.dcache.LoadLockedReq_mshr_miss_latency::total      1871000                       # number of LoadLockedReq MSHR miss cycles
system.cpu1.dcache.LoadLockedReq_mshr_miss_rate::.cpu1.data     0.020876                       # mshr miss rate for LoadLockedReq accesses
system.cpu1.dcache.LoadLockedReq_mshr_miss_rate::total     0.020876                       # mshr miss rate for LoadLockedReq accesses
system.cpu1.dcache.LoadLockedReq_avg_mshr_miss_latency::.cpu1.data 10752.873563                       # average LoadLockedReq mshr miss latency
system.cpu1.dcache.LoadLockedReq_avg_mshr_miss_latency::total 10752.873563                       # average LoadLockedReq mshr miss latency
system.cpu1.dcache.StoreCondReq_hits::.cpu1.data         4473                       # number of StoreCondReq hits
system.cpu1.dcache.StoreCondReq_hits::total         4473                       # number of StoreCondReq hits
system.cpu1.dcache.StoreCondReq_misses::.cpu1.data         2764                       # number of StoreCondReq misses
system.cpu1.dcache.StoreCondReq_misses::total         2764                       # number of StoreCondReq misses
system.cpu1.dcache.StoreCondReq_miss_latency::.cpu1.data     16026000                       # number of StoreCondReq miss cycles
system.cpu1.dcache.StoreCondReq_miss_latency::total     16026000                       # number of StoreCondReq miss cycles
system.cpu1.dcache.StoreCondReq_accesses::.cpu1.data         7237                       # number of StoreCondReq accesses(hits+misses)
system.cpu1.dcache.StoreCondReq_accesses::total         7237                       # number of StoreCondReq accesses(hits+misses)
system.cpu1.dcache.StoreCondReq_miss_rate::.cpu1.data     0.381926                       # miss rate for StoreCondReq accesses
system.cpu1.dcache.StoreCondReq_miss_rate::total     0.381926                       # miss rate for StoreCondReq accesses
system.cpu1.dcache.StoreCondReq_avg_miss_latency::.cpu1.data  5798.118669                       # average StoreCondReq miss latency
system.cpu1.dcache.StoreCondReq_avg_miss_latency::total  5798.118669                       # average StoreCondReq miss latency
system.cpu1.dcache.StoreCondReq_mshr_misses::.cpu1.data         2762                       # number of StoreCondReq MSHR misses
system.cpu1.dcache.StoreCondReq_mshr_misses::total         2762                       # number of StoreCondReq MSHR misses
system.cpu1.dcache.StoreCondReq_mshr_miss_latency::.cpu1.data     13264000                       # number of StoreCondReq MSHR miss cycles
system.cpu1.dcache.StoreCondReq_mshr_miss_latency::total     13264000                       # number of StoreCondReq MSHR miss cycles
system.cpu1.dcache.StoreCondReq_mshr_miss_rate::.cpu1.data     0.381650                       # mshr miss rate for StoreCondReq accesses
system.cpu1.dcache.StoreCondReq_mshr_miss_rate::total     0.381650                       # mshr miss rate for StoreCondReq accesses
system.cpu1.dcache.StoreCondReq_avg_mshr_miss_latency::.cpu1.data  4802.317161                       # average StoreCondReq mshr miss latency
system.cpu1.dcache.StoreCondReq_avg_mshr_miss_latency::total  4802.317161                       # average StoreCondReq mshr miss latency
system.cpu1.dcache.SwapReq_hits::.cpu1.data         3811                       # number of SwapReq hits
system.cpu1.dcache.SwapReq_hits::total           3811                       # number of SwapReq hits
system.cpu1.dcache.SwapReq_misses::.cpu1.data       194439                       # number of SwapReq misses
system.cpu1.dcache.SwapReq_misses::total       194439                       # number of SwapReq misses
system.cpu1.dcache.SwapReq_miss_latency::.cpu1.data   5350005999                       # number of SwapReq miss cycles
system.cpu1.dcache.SwapReq_miss_latency::total   5350005999                       # number of SwapReq miss cycles
system.cpu1.dcache.SwapReq_accesses::.cpu1.data       198250                       # number of SwapReq accesses(hits+misses)
system.cpu1.dcache.SwapReq_accesses::total       198250                       # number of SwapReq accesses(hits+misses)
system.cpu1.dcache.SwapReq_miss_rate::.cpu1.data     0.980777                       # miss rate for SwapReq accesses
system.cpu1.dcache.SwapReq_miss_rate::total     0.980777                       # miss rate for SwapReq accesses
system.cpu1.dcache.SwapReq_avg_miss_latency::.cpu1.data 27515.086989                       # average SwapReq miss latency
system.cpu1.dcache.SwapReq_avg_miss_latency::total 27515.086989                       # average SwapReq miss latency
system.cpu1.dcache.SwapReq_mshr_misses::.cpu1.data       194439                       # number of SwapReq MSHR misses
system.cpu1.dcache.SwapReq_mshr_misses::total       194439                       # number of SwapReq MSHR misses
system.cpu1.dcache.SwapReq_mshr_miss_latency::.cpu1.data   5155566999                       # number of SwapReq MSHR miss cycles
system.cpu1.dcache.SwapReq_mshr_miss_latency::total   5155566999                       # number of SwapReq MSHR miss cycles
system.cpu1.dcache.SwapReq_mshr_miss_rate::.cpu1.data     0.980777                       # mshr miss rate for SwapReq accesses
system.cpu1.dcache.SwapReq_mshr_miss_rate::total     0.980777                       # mshr miss rate for SwapReq accesses
system.cpu1.dcache.SwapReq_avg_mshr_miss_latency::.cpu1.data 26515.086989                       # average SwapReq mshr miss latency
system.cpu1.dcache.SwapReq_avg_mshr_miss_latency::total 26515.086989                       # average SwapReq mshr miss latency
system.cpu1.dcache.tags.pwrStateResidencyTicks::UNDEFINED 3513939525500                       # Cumulative time (in ticks) in various power states
system.cpu1.dcache.tags.tagsinuse           31.967103                       # Cycle average of tags in use
system.cpu1.dcache.tags.total_refs          313185498                       # Total number of references to valid blocks.
system.cpu1.dcache.tags.sampled_refs        126159817                       # Sample count of references to valid blocks.
system.cpu1.dcache.tags.avg_refs             2.482450                       # Average number of references to valid blocks.
system.cpu1.dcache.tags.warmup_cycle                0                       # Cycle when the warmup percentage was hit.
system.cpu1.dcache.tags.occ_blocks::.cpu1.data    31.967103                       # Average occupied blocks per requestor
system.cpu1.dcache.tags.occ_percent::.cpu1.data     0.998972                       # Average percentage of cache occupancy
system.cpu1.dcache.tags.occ_percent::total     0.998972                       # Average percentage of cache occupancy
system.cpu1.dcache.tags.occ_task_id_blocks::1024           27                       # Occupied blocks per task id
system.cpu1.dcache.tags.age_task_id_blocks_1024::1           27                       # Occupied blocks per task id
system.cpu1.dcache.tags.occ_task_id_percent::1024     0.843750                       # Percentage of cache occupancy per task id
system.cpu1.dcache.tags.tag_accesses        935083689                       # Number of tag accesses
system.cpu1.dcache.tags.data_accesses       935083689                       # Number of data accesses
system.cpu_clk_domain.clock                       500                       # Clock period in ticks
system.tol2bus.pwrStateResidencyTicks::UNDEFINED 3513939525500                       # Cumulative time (in ticks) in various power states
system.tol2bus.trans_dist::ReadResp         249339929                       # Transaction distribution
system.tol2bus.trans_dist::WritebackDirty     11840360                       # Transaction distribution
system.tol2bus.trans_dist::WritebackClean    245494661                       # Transaction distribution
system.tol2bus.trans_dist::CleanEvict       680816321                       # Transaction distribution
system.tol2bus.trans_dist::HardPFReq        388977854                       # Transaction distribution
system.tol2bus.trans_dist::HardPFResp             161                       # Transaction distribution
system.tol2bus.trans_dist::UpgradeReq          302976                       # Transaction distribution
system.tol2bus.trans_dist::SCUpgradeReq          5069                       # Transaction distribution
system.tol2bus.trans_dist::UpgradeResp         308045                       # Transaction distribution
system.tol2bus.trans_dist::SCUpgradeFailReq            1                       # Transaction distribution
system.tol2bus.trans_dist::UpgradeFailResp            1                       # Transaction distribution
system.tol2bus.trans_dist::ReadExReq          3348942                       # Transaction distribution
system.tol2bus.trans_dist::ReadExResp         3348942                       # Transaction distribution
system.tol2bus.trans_dist::ReadCleanReq        183545                       # Transaction distribution
system.tol2bus.trans_dist::ReadSharedReq    249156385                       # Transaction distribution
system.tol2bus.pkt_count_system.cpu0.icache.mem_side::system.l2.cpu_side       446416                       # Packet count per connected master and slave (bytes)
system.tol2bus.pkt_count_system.cpu0.dcache.mem_side::system.l2.cpu_side    378762167                       # Packet count per connected master and slave (bytes)
system.tol2bus.pkt_count_system.cpu1.icache.mem_side::system.l2.cpu_side       104217                       # Packet count per connected master and slave (bytes)
system.tol2bus.pkt_count_system.cpu1.dcache.mem_side::system.l2.cpu_side    378196803                       # Packet count per connected master and slave (bytes)
system.tol2bus.pkt_count::total             757509603                       # Packet count per connected master and slave (bytes)
system.tol2bus.pkt_size_system.cpu0.icache.mem_side::system.l2.cpu_side     19047040                       # Cumulative packet size per connected master and slave (bytes)
system.tol2bus.pkt_size_system.cpu0.dcache.mem_side::system.l2.cpu_side  16142006656                       # Cumulative packet size per connected master and slave (bytes)
system.tol2bus.pkt_size_system.cpu1.icache.mem_side::system.l2.cpu_side      4446592                       # Cumulative packet size per connected master and slave (bytes)
system.tol2bus.pkt_size_system.cpu1.dcache.mem_side::system.l2.cpu_side  16117762048                       # Cumulative packet size per connected master and slave (bytes)
system.tol2bus.pkt_size::total            32283262336                       # Cumulative packet size per connected master and slave (bytes)
system.tol2bus.snoops                      1075613750                       # Total snoops (count)
system.tol2bus.snoopTraffic                 358287424                       # Total snoop traffic (bytes)
system.tol2bus.snoop_fanout::samples       1328069205                       # Request fanout histogram
system.tol2bus.snoop_fanout::mean            0.182391                       # Request fanout histogram
system.tol2bus.snoop_fanout::stdev           0.396039                       # Request fanout histogram
system.tol2bus.snoop_fanout::underflows             0      0.00%      0.00% # Request fanout histogram
system.tol2bus.snoop_fanout::0             1090969656     82.15%     82.15% # Request fanout histogram
system.tol2bus.snoop_fanout::1              231971656     17.47%     99.61% # Request fanout histogram
system.tol2bus.snoop_fanout::2                5127893      0.39%    100.00% # Request fanout histogram
system.tol2bus.snoop_fanout::3                      0      0.00%    100.00% # Request fanout histogram
system.tol2bus.snoop_fanout::4                      0      0.00%    100.00% # Request fanout histogram
system.tol2bus.snoop_fanout::5                      0      0.00%    100.00% # Request fanout histogram
system.tol2bus.snoop_fanout::6                      0      0.00%    100.00% # Request fanout histogram
system.tol2bus.snoop_fanout::7                      0      0.00%    100.00% # Request fanout histogram
system.tol2bus.snoop_fanout::8                      0      0.00%    100.00% # Request fanout histogram
system.tol2bus.snoop_fanout::overflows              0      0.00%    100.00% # Request fanout histogram
system.tol2bus.snoop_fanout::min_value              0                       # Request fanout histogram
system.tol2bus.snoop_fanout::max_value              2                       # Request fanout histogram
system.tol2bus.snoop_fanout::total         1328069205                       # Request fanout histogram
system.tol2bus.reqLayer0.occupancy       505122942311                       # Layer occupancy (ticks)
system.tol2bus.reqLayer0.utilization             14.4                       # Layer utilization (%)
system.tol2bus.respLayer1.occupancy      189824302113                       # Layer occupancy (ticks)
system.tol2bus.respLayer1.utilization             5.4                       # Layer utilization (%)
system.tol2bus.respLayer0.occupancy         223413587                       # Layer occupancy (ticks)
system.tol2bus.respLayer0.utilization             0.0                       # Layer utilization (%)
system.tol2bus.respLayer3.occupancy      189548066699                       # Layer occupancy (ticks)
system.tol2bus.respLayer3.utilization             5.4                       # Layer utilization (%)
system.tol2bus.respLayer2.occupancy          52407401                       # Layer occupancy (ticks)
system.tol2bus.respLayer2.utilization             0.0                       # Layer utilization (%)
system.tol2bus.snoopLayer0.occupancy           241582                       # Layer occupancy (ticks)
system.tol2bus.snoopLayer0.utilization            0.0                       # Layer utilization (%)

---------- End Simulation Statistics   ----------
