
---------- Begin Simulation Statistics ----------
final_tick                               892635845000                       # Number of ticks from beginning of simulation (restored from checkpoints and never reset)
host_inst_rate                                  95141                       # Simulator instruction rate (inst/s)
host_mem_usage                                 739560                       # Number of bytes of host memory used
host_op_rate                                    95448                       # Simulator op (including micro ops) rate (op/s)
host_seconds                                 10705.27                       # Real time elapsed on the host
host_tick_rate                               83382805                       # Simulator tick rate (ticks/s)
sim_freq                                 1000000000000                       # Frequency of simulated ticks
sim_insts                                  1018515275                       # Number of instructions simulated
sim_ops                                    1021796894                       # Number of ops (including micro ops) simulated
sim_seconds                                  0.892636                       # Number of seconds simulated
sim_ticks                                892635845000                       # Number of ticks simulated
system.cpu0.branchPred.BTBCorrect                   0                       # Number of correct BTB predictions (this stat may not work properly.
system.cpu0.branchPred.BTBHitPct            86.793639                       # BTB Hit Percentage
system.cpu0.branchPred.BTBHits              116928995                       # Number of BTB hits
system.cpu0.branchPred.BTBLookups           134720697                       # Number of BTB lookups
system.cpu0.branchPred.RASInCorrect                 0                       # Number of incorrect RAS predictions.
system.cpu0.branchPred.condIncorrect          8670162                       # Number of conditional branches incorrect
system.cpu0.branchPred.condPredicted        186938388                       # Number of conditional branches predicted
system.cpu0.branchPred.indirectHits          15577154                       # Number of indirect target hits.
system.cpu0.branchPred.indirectLookups       15716676                       # Number of indirect predictor lookups.
system.cpu0.branchPred.indirectMisses          139522                       # Number of indirect misses.
system.cpu0.branchPred.lookups              237100471                       # Number of BP lookups
system.cpu0.branchPred.usedRAS                      0                       # Number of times the RAS was used to get a target.
system.cpu0.branchPredindirectMispredicted      1666075                       # Number of mispredicted indirect branches.
system.cpu0.commit.amos                        819872                       # Number of atomic instructions committed
system.cpu0.commit.branchMispredicts          5792728                       # The number of times a branch was mispredicted
system.cpu0.commit.branches                 221014622                       # Number of branches committed
system.cpu0.commit.bw_lim_events             27371051                       # number cycles where commit BW limit reached
system.cpu0.commit.commitNonSpecStalls        2466150                       # The number of times commit has been forced to stall to communicate backwards
system.cpu0.commit.commitSquashedInsts       54817681                       # The number of squashed insts skipped by commit
system.cpu0.commit.committedInsts           892403594                       # Number of instructions committed
system.cpu0.commit.committedOps             893225678                       # Number of ops (including micro ops) committed
system.cpu0.commit.committed_per_cycle::samples   1599976948                       # Number of insts commited each cycle
system.cpu0.commit.committed_per_cycle::mean     0.558274                       # Number of insts commited each cycle
system.cpu0.commit.committed_per_cycle::stdev     1.339237                       # Number of insts commited each cycle
system.cpu0.commit.committed_per_cycle::underflows            0      0.00%      0.00% # Number of insts commited each cycle
system.cpu0.commit.committed_per_cycle::0   1173324029     73.33%     73.33% # Number of insts commited each cycle
system.cpu0.commit.committed_per_cycle::1    250526048     15.66%     88.99% # Number of insts commited each cycle
system.cpu0.commit.committed_per_cycle::2     63205193      3.95%     92.94% # Number of insts commited each cycle
system.cpu0.commit.committed_per_cycle::3     62358447      3.90%     96.84% # Number of insts commited each cycle
system.cpu0.commit.committed_per_cycle::4     14015999      0.88%     97.72% # Number of insts commited each cycle
system.cpu0.commit.committed_per_cycle::5      4388066      0.27%     97.99% # Number of insts commited each cycle
system.cpu0.commit.committed_per_cycle::6      1275636      0.08%     98.07% # Number of insts commited each cycle
system.cpu0.commit.committed_per_cycle::7      3512479      0.22%     98.29% # Number of insts commited each cycle
system.cpu0.commit.committed_per_cycle::8     27371051      1.71%    100.00% # Number of insts commited each cycle
system.cpu0.commit.committed_per_cycle::overflows            0      0.00%    100.00% # Number of insts commited each cycle
system.cpu0.commit.committed_per_cycle::min_value            0                       # Number of insts commited each cycle
system.cpu0.commit.committed_per_cycle::max_value            8                       # Number of insts commited each cycle
system.cpu0.commit.committed_per_cycle::total   1599976948                       # Number of insts commited each cycle
system.cpu0.commit.fp_insts                        50                       # Number of committed floating point instructions.
system.cpu0.commit.function_calls            18341013                       # Number of function calls committed.
system.cpu0.commit.int_insts                863513917                       # Number of committed integer instructions.
system.cpu0.commit.loads                    280412418                       # Number of loads committed
system.cpu0.commit.membars                    1641838                       # Number of memory barriers committed
system.cpu0.commit.op_class_0::No_OpClass      1641844      0.18%      0.18% # Class of committed instruction
system.cpu0.commit.op_class_0::IntAlu       491116959     54.98%     55.17% # Class of committed instruction
system.cpu0.commit.op_class_0::IntMult        7835016      0.88%     56.04% # Class of committed instruction
system.cpu0.commit.op_class_0::IntDiv         1638713      0.18%     56.23% # Class of committed instruction
system.cpu0.commit.op_class_0::FloatAdd             0      0.00%     56.23% # Class of committed instruction
system.cpu0.commit.op_class_0::FloatCmp             4      0.00%     56.23% # Class of committed instruction
system.cpu0.commit.op_class_0::FloatCvt            12      0.00%     56.23% # Class of committed instruction
system.cpu0.commit.op_class_0::FloatMult            0      0.00%     56.23% # Class of committed instruction
system.cpu0.commit.op_class_0::FloatMultAcc            0      0.00%     56.23% # Class of committed instruction
system.cpu0.commit.op_class_0::FloatDiv             2      0.00%     56.23% # Class of committed instruction
system.cpu0.commit.op_class_0::FloatMisc            4      0.00%     56.23% # Class of committed instruction
system.cpu0.commit.op_class_0::FloatSqrt            0      0.00%     56.23% # Class of committed instruction
system.cpu0.commit.op_class_0::SimdAdd              0      0.00%     56.23% # Class of committed instruction
system.cpu0.commit.op_class_0::SimdAddAcc            0      0.00%     56.23% # Class of committed instruction
system.cpu0.commit.op_class_0::SimdAlu              0      0.00%     56.23% # Class of committed instruction
system.cpu0.commit.op_class_0::SimdCmp              0      0.00%     56.23% # Class of committed instruction
system.cpu0.commit.op_class_0::SimdCvt              0      0.00%     56.23% # Class of committed instruction
system.cpu0.commit.op_class_0::SimdMisc             0      0.00%     56.23% # Class of committed instruction
system.cpu0.commit.op_class_0::SimdMult             0      0.00%     56.23% # Class of committed instruction
system.cpu0.commit.op_class_0::SimdMultAcc            0      0.00%     56.23% # Class of committed instruction
system.cpu0.commit.op_class_0::SimdShift            0      0.00%     56.23% # Class of committed instruction
system.cpu0.commit.op_class_0::SimdShiftAcc            0      0.00%     56.23% # Class of committed instruction
system.cpu0.commit.op_class_0::SimdDiv              0      0.00%     56.23% # Class of committed instruction
system.cpu0.commit.op_class_0::SimdSqrt             0      0.00%     56.23% # Class of committed instruction
system.cpu0.commit.op_class_0::SimdFloatAdd            0      0.00%     56.23% # Class of committed instruction
system.cpu0.commit.op_class_0::SimdFloatAlu            0      0.00%     56.23% # Class of committed instruction
system.cpu0.commit.op_class_0::SimdFloatCmp            0      0.00%     56.23% # Class of committed instruction
system.cpu0.commit.op_class_0::SimdFloatCvt            0      0.00%     56.23% # Class of committed instruction
system.cpu0.commit.op_class_0::SimdFloatDiv            0      0.00%     56.23% # Class of committed instruction
system.cpu0.commit.op_class_0::SimdFloatMisc            0      0.00%     56.23% # Class of committed instruction
system.cpu0.commit.op_class_0::SimdFloatMult            0      0.00%     56.23% # Class of committed instruction
system.cpu0.commit.op_class_0::SimdFloatMultAcc            0      0.00%     56.23% # Class of committed instruction
system.cpu0.commit.op_class_0::SimdFloatSqrt            0      0.00%     56.23% # Class of committed instruction
system.cpu0.commit.op_class_0::SimdReduceAdd            0      0.00%     56.23% # Class of committed instruction
system.cpu0.commit.op_class_0::SimdReduceAlu            0      0.00%     56.23% # Class of committed instruction
system.cpu0.commit.op_class_0::SimdReduceCmp            0      0.00%     56.23% # Class of committed instruction
system.cpu0.commit.op_class_0::SimdFloatReduceAdd            0      0.00%     56.23% # Class of committed instruction
system.cpu0.commit.op_class_0::SimdFloatReduceCmp            0      0.00%     56.23% # Class of committed instruction
system.cpu0.commit.op_class_0::SimdAes              0      0.00%     56.23% # Class of committed instruction
system.cpu0.commit.op_class_0::SimdAesMix            0      0.00%     56.23% # Class of committed instruction
system.cpu0.commit.op_class_0::SimdSha1Hash            0      0.00%     56.23% # Class of committed instruction
system.cpu0.commit.op_class_0::SimdSha1Hash2            0      0.00%     56.23% # Class of committed instruction
system.cpu0.commit.op_class_0::SimdSha256Hash            0      0.00%     56.23% # Class of committed instruction
system.cpu0.commit.op_class_0::SimdSha256Hash2            0      0.00%     56.23% # Class of committed instruction
system.cpu0.commit.op_class_0::SimdShaSigma2            0      0.00%     56.23% # Class of committed instruction
system.cpu0.commit.op_class_0::SimdShaSigma3            0      0.00%     56.23% # Class of committed instruction
system.cpu0.commit.op_class_0::SimdPredAlu            0      0.00%     56.23% # Class of committed instruction
system.cpu0.commit.op_class_0::MemRead      281232282     31.49%     87.71% # Class of committed instruction
system.cpu0.commit.op_class_0::MemWrite     109760814     12.29%    100.00% # Class of committed instruction
system.cpu0.commit.op_class_0::FloatMemRead            8      0.00%    100.00% # Class of committed instruction
system.cpu0.commit.op_class_0::FloatMemWrite           20      0.00%    100.00% # Class of committed instruction
system.cpu0.commit.op_class_0::IprAccess            0      0.00%    100.00% # Class of committed instruction
system.cpu0.commit.op_class_0::InstPrefetch            0      0.00%    100.00% # Class of committed instruction
system.cpu0.commit.op_class_0::total        893225678                       # Class of committed instruction
system.cpu0.commit.refs                     390993124                       # Number of memory references committed
system.cpu0.commit.swp_count                        0                       # Number of s/w prefetches committed
system.cpu0.commit.vec_insts                        0                       # Number of committed Vector instructions.
system.cpu0.committedInsts                  892403594                       # Number of Instructions Simulated
system.cpu0.committedOps                    893225678                       # Number of Ops (including micro ops) Simulated
system.cpu0.cpi                              1.967889                       # CPI: Cycles Per Instruction
system.cpu0.cpi_total                        1.967889                       # CPI: Total CPI of All Threads
system.cpu0.decode.BlockedCycles            205705225                       # Number of cycles decode is blocked
system.cpu0.decode.BranchMispred              2882718                       # Number of times decode detected a branch misprediction
system.cpu0.decode.BranchResolved           115748920                       # Number of times decode resolved a branch
system.cpu0.decode.DecodedInsts             962876793                       # Number of instructions handled by decode
system.cpu0.decode.IdleCycles               729669775                       # Number of cycles decode is idle
system.cpu0.decode.RunCycles                666737010                       # Number of cycles decode is running
system.cpu0.decode.SquashCycles               5803068                       # Number of cycles decode is squashing
system.cpu0.decode.SquashedInsts              7840087                       # Number of squashed instructions handled by decode
system.cpu0.decode.UnblockCycles              3086210                       # Number of cycles decode is unblocking
system.cpu0.dtb.accesses                            0                       # DTB accesses
system.cpu0.dtb.hits                                0                       # DTB hits
system.cpu0.dtb.misses                              0                       # DTB misses
system.cpu0.dtb.read_accesses                       0                       # DTB read accesses
system.cpu0.dtb.read_hits                           0                       # DTB read hits
system.cpu0.dtb.read_misses                         0                       # DTB read misses
system.cpu0.dtb.write_accesses                      0                       # DTB write accesses
system.cpu0.dtb.write_hits                          0                       # DTB write hits
system.cpu0.dtb.write_misses                        0                       # DTB write misses
system.cpu0.fetch.Branches                  237100471                       # Number of branches that fetch encountered
system.cpu0.fetch.CacheLines                171789806                       # Number of cache lines fetched
system.cpu0.fetch.Cycles                    883415724                       # Number of cycles fetch has run and was not squashing or blocked
system.cpu0.fetch.IcacheSquashes              2606254                       # Number of outstanding Icache misses that were squashed
system.cpu0.fetch.IcacheWaitRetryStallCycles           87                       # Number of stall cycles due to full MSHR
system.cpu0.fetch.Insts                     981901652                       # Number of instructions fetch has processed
system.cpu0.fetch.MiscStallCycles                  46                       # Number of cycles fetch has spent waiting on interrupts, or bad addresses, or out of MSHRs
system.cpu0.fetch.PendingTrapStallCycles           89                       # Number of stall cycles due to pending traps
system.cpu0.fetch.SquashCycles               17361032                       # Number of cycles fetch has spent squashing
system.cpu0.fetch.branchRate                 0.135011                       # Number of branch fetches per cycle
system.cpu0.fetch.icacheStallCycles         718904826                       # Number of cycles fetch is stalled on an Icache miss
system.cpu0.fetch.predictedBranches         132506149                       # Number of branches that fetch has predicted taken
system.cpu0.fetch.rate                       0.559121                       # Number of inst fetches per cycle
system.cpu0.fetch.rateDist::samples        1611001288                       # Number of instructions fetched each cycle (Total)
system.cpu0.fetch.rateDist::mean             0.611255                       # Number of instructions fetched each cycle (Total)
system.cpu0.fetch.rateDist::stdev            0.903304                       # Number of instructions fetched each cycle (Total)
system.cpu0.fetch.rateDist::underflows              0      0.00%      0.00% # Number of instructions fetched each cycle (Total)
system.cpu0.fetch.rateDist::0               918559148     57.02%     57.02% # Number of instructions fetched each cycle (Total)
system.cpu0.fetch.rateDist::1               516214397     32.04%     89.06% # Number of instructions fetched each cycle (Total)
system.cpu0.fetch.rateDist::2                91995826      5.71%     94.77% # Number of instructions fetched each cycle (Total)
system.cpu0.fetch.rateDist::3                67394361      4.18%     98.95% # Number of instructions fetched each cycle (Total)
system.cpu0.fetch.rateDist::4                 9121803      0.57%     99.52% # Number of instructions fetched each cycle (Total)
system.cpu0.fetch.rateDist::5                 3802533      0.24%     99.76% # Number of instructions fetched each cycle (Total)
system.cpu0.fetch.rateDist::6                  575922      0.04%     99.79% # Number of instructions fetched each cycle (Total)
system.cpu0.fetch.rateDist::7                 3309786      0.21%    100.00% # Number of instructions fetched each cycle (Total)
system.cpu0.fetch.rateDist::8                   27512      0.00%    100.00% # Number of instructions fetched each cycle (Total)
system.cpu0.fetch.rateDist::overflows               0      0.00%    100.00% # Number of instructions fetched each cycle (Total)
system.cpu0.fetch.rateDist::min_value               0                       # Number of instructions fetched each cycle (Total)
system.cpu0.fetch.rateDist::max_value               8                       # Number of instructions fetched each cycle (Total)
system.cpu0.fetch.rateDist::total          1611001288                       # Number of instructions fetched each cycle (Total)
system.cpu0.fp_regfile_reads                       44                       # number of floating regfile reads
system.cpu0.fp_regfile_writes                      22                       # number of floating regfile writes
system.cpu0.idleCycles                      145150231                       # Total number of cycles that the CPU has spent unscheduled due to idling
system.cpu0.iew.branchMispredicts             5831797                       # Number of branch mispredicts detected at execute
system.cpu0.iew.exec_branches               226529960                       # Number of branches executed
system.cpu0.iew.exec_nop                            0                       # number of nop insts executed
system.cpu0.iew.exec_rate                    0.526926                       # Inst execution rate
system.cpu0.iew.exec_refs                   408631099                       # number of memory reference insts executed
system.cpu0.iew.exec_stores                 112647607                       # Number of stores executed
system.cpu0.iew.exec_swp                            0                       # number of swp insts executed
system.cpu0.iew.iewBlockCycles              160029671                       # Number of cycles IEW is blocking
system.cpu0.iew.iewDispLoadInsts            301959569                       # Number of dispatched load instructions
system.cpu0.iew.iewDispNonSpecInsts           2020740                       # Number of dispatched non-speculative instructions
system.cpu0.iew.iewDispSquashedInsts          1679728                       # Number of squashed instructions skipped by dispatch
system.cpu0.iew.iewDispStoreInsts           116921498                       # Number of dispatched store instructions
system.cpu0.iew.iewDispatchedInsts          948028844                       # Number of instructions dispatched to IQ
system.cpu0.iew.iewExecLoadInsts            295983492                       # Number of load instructions executed
system.cpu0.iew.iewExecSquashedInsts          5312270                       # Number of squashed instructions skipped in execute
system.cpu0.iew.iewExecutedInsts            925361950                       # Number of executed instructions
system.cpu0.iew.iewIQFullEvents                792219                       # Number of times the IQ has become full, causing a stall
system.cpu0.iew.iewIdleCycles                       0                       # Number of cycles IEW is idle
system.cpu0.iew.iewLSQFullEvents             12152076                       # Number of times the LSQ has become full, causing a stall
system.cpu0.iew.iewSquashCycles               5803068                       # Number of cycles IEW is squashing
system.cpu0.iew.iewUnblockCycles             13841504                       # Number of cycles IEW is unblocking
system.cpu0.iew.lsq.thread0.blockedLoads            0                       # Number of blocked loads due to partial load-store forwarding
system.cpu0.iew.lsq.thread0.cacheBlocked        73351                       # Number of times an access to memory failed due to the cache being blocked
system.cpu0.iew.lsq.thread0.forwLoads        17442515                       # Number of loads that had data forwarded from stores
system.cpu0.iew.lsq.thread0.ignoredResponses        14852                       # Number of memory responses ignored because the instruction is squashed
system.cpu0.iew.lsq.thread0.invAddrLoads            0                       # Number of loads ignored due to an invalid address
system.cpu0.iew.lsq.thread0.invAddrSwpfs            0                       # Number of software prefetches ignored due to an invalid address
system.cpu0.iew.lsq.thread0.memOrderViolation        10971                       # Number of memory ordering violations
system.cpu0.iew.lsq.thread0.rescheduledLoads      3625858                       # Number of loads that were rescheduled
system.cpu0.iew.lsq.thread0.squashedLoads     21547151                       # Number of loads squashed
system.cpu0.iew.lsq.thread0.squashedStores      6340792                       # Number of stores squashed
system.cpu0.iew.memOrderViolationEvents         10971                       # Number of memory order violations
system.cpu0.iew.predictedNotTakenIncorrect       752695                       # Number of branches that were predicted not taken incorrectly
system.cpu0.iew.predictedTakenIncorrect       5079102                       # Number of branches that were predicted taken incorrectly
system.cpu0.iew.wb_consumers                378777374                       # num instructions consuming a value
system.cpu0.iew.wb_count                    917357389                       # cumulative count of insts written-back
system.cpu0.iew.wb_fanout                    0.895678                       # average fanout of values written-back
system.cpu0.iew.wb_producers                339262493                       # num instructions producing a value
system.cpu0.iew.wb_rate                      0.522368                       # insts written-back per cycle
system.cpu0.iew.wb_sent                     917405816                       # cumulative count of insts sent to commit
system.cpu0.int_regfile_reads              1128527851                       # number of integer regfile reads
system.cpu0.int_regfile_writes              585816230                       # number of integer regfile writes
system.cpu0.ipc                              0.508159                       # IPC: Instructions Per Cycle
system.cpu0.ipc_total                        0.508159                       # IPC: Total IPC of All Threads
system.cpu0.iq.FU_type_0::No_OpClass          1643344      0.18%      0.18% # Type of FU issued
system.cpu0.iq.FU_type_0::IntAlu            507221853     54.50%     54.68% # Type of FU issued
system.cpu0.iq.FU_type_0::IntMult             7841327      0.84%     55.52% # Type of FU issued
system.cpu0.iq.FU_type_0::IntDiv              1639168      0.18%     55.70% # Type of FU issued
system.cpu0.iq.FU_type_0::FloatAdd                  0      0.00%     55.70% # Type of FU issued
system.cpu0.iq.FU_type_0::FloatCmp                  4      0.00%     55.70% # Type of FU issued
system.cpu0.iq.FU_type_0::FloatCvt                 12      0.00%     55.70% # Type of FU issued
system.cpu0.iq.FU_type_0::FloatMult                 0      0.00%     55.70% # Type of FU issued
system.cpu0.iq.FU_type_0::FloatMultAcc              0      0.00%     55.70% # Type of FU issued
system.cpu0.iq.FU_type_0::FloatDiv                  2      0.00%     55.70% # Type of FU issued
system.cpu0.iq.FU_type_0::FloatMisc                 4      0.00%     55.70% # Type of FU issued
system.cpu0.iq.FU_type_0::FloatSqrt                 0      0.00%     55.70% # Type of FU issued
system.cpu0.iq.FU_type_0::SimdAdd                   0      0.00%     55.70% # Type of FU issued
system.cpu0.iq.FU_type_0::SimdAddAcc                0      0.00%     55.70% # Type of FU issued
system.cpu0.iq.FU_type_0::SimdAlu                   0      0.00%     55.70% # Type of FU issued
system.cpu0.iq.FU_type_0::SimdCmp                   0      0.00%     55.70% # Type of FU issued
system.cpu0.iq.FU_type_0::SimdCvt                   0      0.00%     55.70% # Type of FU issued
system.cpu0.iq.FU_type_0::SimdMisc                  0      0.00%     55.70% # Type of FU issued
system.cpu0.iq.FU_type_0::SimdMult                  0      0.00%     55.70% # Type of FU issued
system.cpu0.iq.FU_type_0::SimdMultAcc               0      0.00%     55.70% # Type of FU issued
system.cpu0.iq.FU_type_0::SimdShift                 0      0.00%     55.70% # Type of FU issued
system.cpu0.iq.FU_type_0::SimdShiftAcc              0      0.00%     55.70% # Type of FU issued
system.cpu0.iq.FU_type_0::SimdDiv                   0      0.00%     55.70% # Type of FU issued
system.cpu0.iq.FU_type_0::SimdSqrt                  0      0.00%     55.70% # Type of FU issued
system.cpu0.iq.FU_type_0::SimdFloatAdd              0      0.00%     55.70% # Type of FU issued
system.cpu0.iq.FU_type_0::SimdFloatAlu              0      0.00%     55.70% # Type of FU issued
system.cpu0.iq.FU_type_0::SimdFloatCmp              0      0.00%     55.70% # Type of FU issued
system.cpu0.iq.FU_type_0::SimdFloatCvt              0      0.00%     55.70% # Type of FU issued
system.cpu0.iq.FU_type_0::SimdFloatDiv              0      0.00%     55.70% # Type of FU issued
system.cpu0.iq.FU_type_0::SimdFloatMisc             0      0.00%     55.70% # Type of FU issued
system.cpu0.iq.FU_type_0::SimdFloatMult             0      0.00%     55.70% # Type of FU issued
system.cpu0.iq.FU_type_0::SimdFloatMultAcc            0      0.00%     55.70% # Type of FU issued
system.cpu0.iq.FU_type_0::SimdFloatSqrt             0      0.00%     55.70% # Type of FU issued
system.cpu0.iq.FU_type_0::SimdReduceAdd             0      0.00%     55.70% # Type of FU issued
system.cpu0.iq.FU_type_0::SimdReduceAlu             0      0.00%     55.70% # Type of FU issued
system.cpu0.iq.FU_type_0::SimdReduceCmp             0      0.00%     55.70% # Type of FU issued
system.cpu0.iq.FU_type_0::SimdFloatReduceAdd            0      0.00%     55.70% # Type of FU issued
system.cpu0.iq.FU_type_0::SimdFloatReduceCmp            0      0.00%     55.70% # Type of FU issued
system.cpu0.iq.FU_type_0::SimdAes                   0      0.00%     55.70% # Type of FU issued
system.cpu0.iq.FU_type_0::SimdAesMix                0      0.00%     55.70% # Type of FU issued
system.cpu0.iq.FU_type_0::SimdSha1Hash              0      0.00%     55.70% # Type of FU issued
system.cpu0.iq.FU_type_0::SimdSha1Hash2             0      0.00%     55.70% # Type of FU issued
system.cpu0.iq.FU_type_0::SimdSha256Hash            0      0.00%     55.70% # Type of FU issued
system.cpu0.iq.FU_type_0::SimdSha256Hash2            0      0.00%     55.70% # Type of FU issued
system.cpu0.iq.FU_type_0::SimdShaSigma2             0      0.00%     55.70% # Type of FU issued
system.cpu0.iq.FU_type_0::SimdShaSigma3             0      0.00%     55.70% # Type of FU issued
system.cpu0.iq.FU_type_0::SimdPredAlu               0      0.00%     55.70% # Type of FU issued
system.cpu0.iq.FU_type_0::MemRead           299022189     32.13%     87.83% # Type of FU issued
system.cpu0.iq.FU_type_0::MemWrite          113306290     12.17%    100.00% # Type of FU issued
system.cpu0.iq.FU_type_0::FloatMemRead              8      0.00%    100.00% # Type of FU issued
system.cpu0.iq.FU_type_0::FloatMemWrite            20      0.00%    100.00% # Type of FU issued
system.cpu0.iq.FU_type_0::IprAccess                 0      0.00%    100.00% # Type of FU issued
system.cpu0.iq.FU_type_0::InstPrefetch              0      0.00%    100.00% # Type of FU issued
system.cpu0.iq.FU_type_0::total             930674221                       # Type of FU issued
system.cpu0.iq.fp_alu_accesses                     52                       # Number of floating point alu accesses
system.cpu0.iq.fp_inst_queue_reads                102                       # Number of floating instruction queue reads
system.cpu0.iq.fp_inst_queue_wakeup_accesses           50                       # Number of floating instruction queue wakeup accesses
system.cpu0.iq.fp_inst_queue_writes                50                       # Number of floating instruction queue writes
system.cpu0.iq.fu_busy_cnt                    1195058                       # FU busy when requested
system.cpu0.iq.fu_busy_rate                  0.001284                       # FU busy rate (busy events/executed inst)
system.cpu0.iq.fu_full::No_OpClass                  0      0.00%      0.00% # attempts to use FU when none available
system.cpu0.iq.fu_full::IntAlu                 174316     14.59%     14.59% # attempts to use FU when none available
system.cpu0.iq.fu_full::IntMult                     0      0.00%     14.59% # attempts to use FU when none available
system.cpu0.iq.fu_full::IntDiv                      0      0.00%     14.59% # attempts to use FU when none available
system.cpu0.iq.fu_full::FloatAdd                    0      0.00%     14.59% # attempts to use FU when none available
system.cpu0.iq.fu_full::FloatCmp                    0      0.00%     14.59% # attempts to use FU when none available
system.cpu0.iq.fu_full::FloatCvt                    0      0.00%     14.59% # attempts to use FU when none available
system.cpu0.iq.fu_full::FloatMult                   0      0.00%     14.59% # attempts to use FU when none available
system.cpu0.iq.fu_full::FloatMultAcc                0      0.00%     14.59% # attempts to use FU when none available
system.cpu0.iq.fu_full::FloatDiv                    0      0.00%     14.59% # attempts to use FU when none available
system.cpu0.iq.fu_full::FloatMisc                   0      0.00%     14.59% # attempts to use FU when none available
system.cpu0.iq.fu_full::FloatSqrt                   0      0.00%     14.59% # attempts to use FU when none available
system.cpu0.iq.fu_full::SimdAdd                     0      0.00%     14.59% # attempts to use FU when none available
system.cpu0.iq.fu_full::SimdAddAcc                  0      0.00%     14.59% # attempts to use FU when none available
system.cpu0.iq.fu_full::SimdAlu                     0      0.00%     14.59% # attempts to use FU when none available
system.cpu0.iq.fu_full::SimdCmp                     0      0.00%     14.59% # attempts to use FU when none available
system.cpu0.iq.fu_full::SimdCvt                     0      0.00%     14.59% # attempts to use FU when none available
system.cpu0.iq.fu_full::SimdMisc                    0      0.00%     14.59% # attempts to use FU when none available
system.cpu0.iq.fu_full::SimdMult                    0      0.00%     14.59% # attempts to use FU when none available
system.cpu0.iq.fu_full::SimdMultAcc                 0      0.00%     14.59% # attempts to use FU when none available
system.cpu0.iq.fu_full::SimdShift                   0      0.00%     14.59% # attempts to use FU when none available
system.cpu0.iq.fu_full::SimdShiftAcc                0      0.00%     14.59% # attempts to use FU when none available
system.cpu0.iq.fu_full::SimdDiv                     0      0.00%     14.59% # attempts to use FU when none available
system.cpu0.iq.fu_full::SimdSqrt                    0      0.00%     14.59% # attempts to use FU when none available
system.cpu0.iq.fu_full::SimdFloatAdd                0      0.00%     14.59% # attempts to use FU when none available
system.cpu0.iq.fu_full::SimdFloatAlu                0      0.00%     14.59% # attempts to use FU when none available
system.cpu0.iq.fu_full::SimdFloatCmp                0      0.00%     14.59% # attempts to use FU when none available
system.cpu0.iq.fu_full::SimdFloatCvt                0      0.00%     14.59% # attempts to use FU when none available
system.cpu0.iq.fu_full::SimdFloatDiv                0      0.00%     14.59% # attempts to use FU when none available
system.cpu0.iq.fu_full::SimdFloatMisc               0      0.00%     14.59% # attempts to use FU when none available
system.cpu0.iq.fu_full::SimdFloatMult               0      0.00%     14.59% # attempts to use FU when none available
system.cpu0.iq.fu_full::SimdFloatMultAcc            0      0.00%     14.59% # attempts to use FU when none available
system.cpu0.iq.fu_full::SimdFloatSqrt               0      0.00%     14.59% # attempts to use FU when none available
system.cpu0.iq.fu_full::SimdReduceAdd               0      0.00%     14.59% # attempts to use FU when none available
system.cpu0.iq.fu_full::SimdReduceAlu               0      0.00%     14.59% # attempts to use FU when none available
system.cpu0.iq.fu_full::SimdReduceCmp               0      0.00%     14.59% # attempts to use FU when none available
system.cpu0.iq.fu_full::SimdFloatReduceAdd            0      0.00%     14.59% # attempts to use FU when none available
system.cpu0.iq.fu_full::SimdFloatReduceCmp            0      0.00%     14.59% # attempts to use FU when none available
system.cpu0.iq.fu_full::SimdAes                     0      0.00%     14.59% # attempts to use FU when none available
system.cpu0.iq.fu_full::SimdAesMix                  0      0.00%     14.59% # attempts to use FU when none available
system.cpu0.iq.fu_full::SimdSha1Hash                0      0.00%     14.59% # attempts to use FU when none available
system.cpu0.iq.fu_full::SimdSha1Hash2               0      0.00%     14.59% # attempts to use FU when none available
system.cpu0.iq.fu_full::SimdSha256Hash              0      0.00%     14.59% # attempts to use FU when none available
system.cpu0.iq.fu_full::SimdSha256Hash2             0      0.00%     14.59% # attempts to use FU when none available
system.cpu0.iq.fu_full::SimdShaSigma2               0      0.00%     14.59% # attempts to use FU when none available
system.cpu0.iq.fu_full::SimdShaSigma3               0      0.00%     14.59% # attempts to use FU when none available
system.cpu0.iq.fu_full::SimdPredAlu                 0      0.00%     14.59% # attempts to use FU when none available
system.cpu0.iq.fu_full::MemRead                901444     75.43%     90.02% # attempts to use FU when none available
system.cpu0.iq.fu_full::MemWrite               119296      9.98%    100.00% # attempts to use FU when none available
system.cpu0.iq.fu_full::FloatMemRead                0      0.00%    100.00% # attempts to use FU when none available
system.cpu0.iq.fu_full::FloatMemWrite               2      0.00%    100.00% # attempts to use FU when none available
system.cpu0.iq.fu_full::IprAccess                   0      0.00%    100.00% # attempts to use FU when none available
system.cpu0.iq.fu_full::InstPrefetch                0      0.00%    100.00% # attempts to use FU when none available
system.cpu0.iq.int_alu_accesses             930225883                       # Number of integer alu accesses
system.cpu0.iq.int_inst_queue_reads        3473610676                       # Number of integer instruction queue reads
system.cpu0.iq.int_inst_queue_wakeup_accesses    917357339                       # Number of integer instruction queue wakeup accesses
system.cpu0.iq.int_inst_queue_writes       1002841815                       # Number of integer instruction queue writes
system.cpu0.iq.iqInstsAdded                 941976207                       # Number of instructions added to the IQ (excludes non-spec)
system.cpu0.iq.iqInstsIssued                930674221                       # Number of instructions issued
system.cpu0.iq.iqNonSpecInstsAdded            6052637                       # Number of non-speculative instructions added to the IQ
system.cpu0.iq.iqSquashedInstsExamined       54803162                       # Number of squashed instructions iterated over during squash; mainly for profiling
system.cpu0.iq.iqSquashedInstsIssued            65991                       # Number of squashed instructions issued
system.cpu0.iq.iqSquashedNonSpecRemoved       3586487                       # Number of squashed non-spec instructions that were removed
system.cpu0.iq.iqSquashedOperandsExamined     31803942                       # Number of squashed operands that are examined and possibly removed from graph
system.cpu0.iq.issued_per_cycle::samples   1611001288                       # Number of insts issued each cycle
system.cpu0.iq.issued_per_cycle::mean        0.577699                       # Number of insts issued each cycle
system.cpu0.iq.issued_per_cycle::stdev       0.809388                       # Number of insts issued each cycle
system.cpu0.iq.issued_per_cycle::underflows            0      0.00%      0.00% # Number of insts issued each cycle
system.cpu0.iq.issued_per_cycle::0          934487969     58.01%     58.01% # Number of insts issued each cycle
system.cpu0.iq.issued_per_cycle::1          480472434     29.82%     87.83% # Number of insts issued each cycle
system.cpu0.iq.issued_per_cycle::2          151558322      9.41%     97.24% # Number of insts issued each cycle
system.cpu0.iq.issued_per_cycle::3           34255051      2.13%     99.37% # Number of insts issued each cycle
system.cpu0.iq.issued_per_cycle::4            8178912      0.51%     99.87% # Number of insts issued each cycle
system.cpu0.iq.issued_per_cycle::5            1096525      0.07%     99.94% # Number of insts issued each cycle
system.cpu0.iq.issued_per_cycle::6             622425      0.04%     99.98% # Number of insts issued each cycle
system.cpu0.iq.issued_per_cycle::7             250033      0.02%    100.00% # Number of insts issued each cycle
system.cpu0.iq.issued_per_cycle::8              79617      0.00%    100.00% # Number of insts issued each cycle
system.cpu0.iq.issued_per_cycle::overflows            0      0.00%    100.00% # Number of insts issued each cycle
system.cpu0.iq.issued_per_cycle::min_value            0                       # Number of insts issued each cycle
system.cpu0.iq.issued_per_cycle::max_value            8                       # Number of insts issued each cycle
system.cpu0.iq.issued_per_cycle::total     1611001288                       # Number of insts issued each cycle
system.cpu0.iq.rate                          0.529951                       # Inst issue rate
system.cpu0.iq.vec_alu_accesses                     0                       # Number of vector alu accesses
system.cpu0.iq.vec_inst_queue_reads                 0                       # Number of vector instruction queue reads
system.cpu0.iq.vec_inst_queue_wakeup_accesses            0                       # Number of vector instruction queue wakeup accesses
system.cpu0.iq.vec_inst_queue_writes                0                       # Number of vector instruction queue writes
system.cpu0.itb.accesses                            0                       # DTB accesses
system.cpu0.itb.hits                                0                       # DTB hits
system.cpu0.itb.misses                              0                       # DTB misses
system.cpu0.itb.read_accesses                       0                       # DTB read accesses
system.cpu0.itb.read_hits                           0                       # DTB read hits
system.cpu0.itb.read_misses                         0                       # DTB read misses
system.cpu0.itb.write_accesses                      0                       # DTB write accesses
system.cpu0.itb.write_hits                          0                       # DTB write hits
system.cpu0.itb.write_misses                        0                       # DTB write misses
system.cpu0.memDep0.conflictingLoads         19159770                       # Number of conflicting loads.
system.cpu0.memDep0.conflictingStores         3378709                       # Number of conflicting stores.
system.cpu0.memDep0.insertedLoads           301959569                       # Number of loads inserted to the mem dependence unit.
system.cpu0.memDep0.insertedStores          116921498                       # Number of stores inserted to the mem dependence unit.
system.cpu0.misc_regfile_reads                   1518                       # number of misc regfile reads
system.cpu0.misc_regfile_writes                    22                       # number of misc regfile writes
system.cpu0.numCycles                      1756151519                       # number of cpu cycles simulated
system.cpu0.numWorkItemsCompleted                   0                       # number of work items this cpu completed
system.cpu0.numWorkItemsStarted                     0                       # number of work items this cpu started
system.cpu0.quiesceCycles                    29121013                       # Total number of cycles that CPU has spent quiesced or waiting for an interrupt
system.cpu0.rename.BlockCycles              178111632                       # Number of cycles rename is blocking
system.cpu0.rename.CommittedMaps            569159520                       # Number of HB maps that are committed
system.cpu0.rename.IQFullEvents               3947311                       # Number of times rename has blocked due to IQ full
system.cpu0.rename.IdleCycles               736696558                       # Number of cycles rename is idle
system.cpu0.rename.LQFullEvents              12232639                       # Number of times rename has blocked due to LQ full
system.cpu0.rename.ROBFullEvents                 5974                       # Number of times rename has blocked due to ROB full
system.cpu0.rename.RenameLookups           1166080932                       # Number of register rename lookups that rename has made
system.cpu0.rename.RenamedInsts             956237260                       # Number of instructions processed by rename
system.cpu0.rename.RenamedOperands          613008383                       # Number of destination operands rename has renamed
system.cpu0.rename.RunCycles                661921640                       # Number of cycles rename is running
system.cpu0.rename.SQFullEvents              11382351                       # Number of times rename has blocked due to SQ full
system.cpu0.rename.SquashCycles               5803068                       # Number of cycles rename is squashing
system.cpu0.rename.UnblockCycles             28341765                       # Number of cycles rename is unblocking
system.cpu0.rename.UndoneMaps                43848858                       # Number of HB maps that are undone due to squashing
system.cpu0.rename.fp_rename_lookups               44                       # Number of floating rename lookups
system.cpu0.rename.int_rename_lookups      1166080888                       # Number of integer rename lookups
system.cpu0.rename.serializeStallCycles        126625                       # count of cycles rename stalled for serializing inst
system.cpu0.rename.serializingInsts              4604                       # count of serializing insts renamed
system.cpu0.rename.skidInsts                 10660984                       # count of insts added to the skid buffer
system.cpu0.rename.tempSerializingInsts          4555                       # count of temporary serializing insts renamed
system.cpu0.rob.rob_reads                  2520630081                       # The number of ROB reads
system.cpu0.rob.rob_writes                 1907117138                       # The number of ROB writes
system.cpu0.timesIdled                       24876927                       # Number of times that the entire CPU went into an idle state and unscheduled itself
system.cpu0.workload.numSyscalls                 1485                       # Number of system calls
system.cpu1.branchPred.BTBCorrect                   0                       # Number of correct BTB predictions (this stat may not work properly.
system.cpu1.branchPred.BTBHitPct            87.356675                       # BTB Hit Percentage
system.cpu1.branchPred.BTBHits                8432207                       # Number of BTB hits
system.cpu1.branchPred.BTBLookups             9652619                       # Number of BTB lookups
system.cpu1.branchPred.RASInCorrect                 0                       # Number of incorrect RAS predictions.
system.cpu1.branchPred.condIncorrect          1591021                       # Number of conditional branches incorrect
system.cpu1.branchPred.condPredicted         12356109                       # Number of conditional branches predicted
system.cpu1.branchPred.indirectHits            249175                       # Number of indirect target hits.
system.cpu1.branchPred.indirectLookups         317483                       # Number of indirect predictor lookups.
system.cpu1.branchPred.indirectMisses           68308                       # Number of indirect misses.
system.cpu1.branchPred.lookups               14620777                       # Number of BP lookups
system.cpu1.branchPred.usedRAS                      0                       # Number of times the RAS was used to get a target.
system.cpu1.branchPredindirectMispredicted        25253                       # Number of mispredicted indirect branches.
system.cpu1.commit.amos                        819631                       # Number of atomic instructions committed
system.cpu1.commit.branchMispredicts          1384382                       # The number of times a branch was mispredicted
system.cpu1.commit.branches                  10299993                       # Number of branches committed
system.cpu1.commit.bw_lim_events               628862                       # number cycles where commit BW limit reached
system.cpu1.commit.commitNonSpecStalls        2459582                       # The number of times commit has been forced to stall to communicate backwards
system.cpu1.commit.commitSquashedInsts       10195311                       # The number of squashed insts skipped by commit
system.cpu1.commit.committedInsts            41845895                       # Number of instructions committed
system.cpu1.commit.committedOps              42665718                       # Number of ops (including micro ops) committed
system.cpu1.commit.committed_per_cycle::samples    236650078                       # Number of insts commited each cycle
system.cpu1.commit.committed_per_cycle::mean     0.180290                       # Number of insts commited each cycle
system.cpu1.commit.committed_per_cycle::stdev     0.769693                       # Number of insts commited each cycle
system.cpu1.commit.committed_per_cycle::underflows            0      0.00%      0.00% # Number of insts commited each cycle
system.cpu1.commit.committed_per_cycle::0    217103902     91.74%     91.74% # Number of insts commited each cycle
system.cpu1.commit.committed_per_cycle::1      9543016      4.03%     95.77% # Number of insts commited each cycle
system.cpu1.commit.committed_per_cycle::2      3857182      1.63%     97.40% # Number of insts commited each cycle
system.cpu1.commit.committed_per_cycle::3      3740244      1.58%     98.98% # Number of insts commited each cycle
system.cpu1.commit.committed_per_cycle::4       697367      0.29%     99.28% # Number of insts commited each cycle
system.cpu1.commit.committed_per_cycle::5       208099      0.09%     99.37% # Number of insts commited each cycle
system.cpu1.commit.committed_per_cycle::6       773095      0.33%     99.69% # Number of insts commited each cycle
system.cpu1.commit.committed_per_cycle::7        98311      0.04%     99.73% # Number of insts commited each cycle
system.cpu1.commit.committed_per_cycle::8       628862      0.27%    100.00% # Number of insts commited each cycle
system.cpu1.commit.committed_per_cycle::overflows            0      0.00%    100.00% # Number of insts commited each cycle
system.cpu1.commit.committed_per_cycle::min_value            0                       # Number of insts commited each cycle
system.cpu1.commit.committed_per_cycle::max_value            8                       # Number of insts commited each cycle
system.cpu1.commit.committed_per_cycle::total    236650078                       # Number of insts commited each cycle
system.cpu1.commit.fp_insts                        12                       # Number of committed floating point instructions.
system.cpu1.commit.function_calls              317241                       # Number of function calls committed.
system.cpu1.commit.int_insts                 40180368                       # Number of committed integer instructions.
system.cpu1.commit.loads                     11552454                       # Number of loads committed
system.cpu1.commit.membars                    1639347                       # Number of memory barriers committed
system.cpu1.commit.op_class_0::No_OpClass      1639347      3.84%      3.84% # Class of committed instruction
system.cpu1.commit.op_class_0::IntAlu        24988760     58.57%     62.41% # Class of committed instruction
system.cpu1.commit.op_class_0::IntMult             43      0.00%     62.41% # Class of committed instruction
system.cpu1.commit.op_class_0::IntDiv              86      0.00%     62.41% # Class of committed instruction
system.cpu1.commit.op_class_0::FloatAdd             0      0.00%     62.41% # Class of committed instruction
system.cpu1.commit.op_class_0::FloatCmp             0      0.00%     62.41% # Class of committed instruction
system.cpu1.commit.op_class_0::FloatCvt             0      0.00%     62.41% # Class of committed instruction
system.cpu1.commit.op_class_0::FloatMult            0      0.00%     62.41% # Class of committed instruction
system.cpu1.commit.op_class_0::FloatMultAcc            0      0.00%     62.41% # Class of committed instruction
system.cpu1.commit.op_class_0::FloatDiv             0      0.00%     62.41% # Class of committed instruction
system.cpu1.commit.op_class_0::FloatMisc            0      0.00%     62.41% # Class of committed instruction
system.cpu1.commit.op_class_0::FloatSqrt            0      0.00%     62.41% # Class of committed instruction
system.cpu1.commit.op_class_0::SimdAdd              0      0.00%     62.41% # Class of committed instruction
system.cpu1.commit.op_class_0::SimdAddAcc            0      0.00%     62.41% # Class of committed instruction
system.cpu1.commit.op_class_0::SimdAlu              0      0.00%     62.41% # Class of committed instruction
system.cpu1.commit.op_class_0::SimdCmp              0      0.00%     62.41% # Class of committed instruction
system.cpu1.commit.op_class_0::SimdCvt              0      0.00%     62.41% # Class of committed instruction
system.cpu1.commit.op_class_0::SimdMisc             0      0.00%     62.41% # Class of committed instruction
system.cpu1.commit.op_class_0::SimdMult             0      0.00%     62.41% # Class of committed instruction
system.cpu1.commit.op_class_0::SimdMultAcc            0      0.00%     62.41% # Class of committed instruction
system.cpu1.commit.op_class_0::SimdShift            0      0.00%     62.41% # Class of committed instruction
system.cpu1.commit.op_class_0::SimdShiftAcc            0      0.00%     62.41% # Class of committed instruction
system.cpu1.commit.op_class_0::SimdDiv              0      0.00%     62.41% # Class of committed instruction
system.cpu1.commit.op_class_0::SimdSqrt             0      0.00%     62.41% # Class of committed instruction
system.cpu1.commit.op_class_0::SimdFloatAdd            0      0.00%     62.41% # Class of committed instruction
system.cpu1.commit.op_class_0::SimdFloatAlu            0      0.00%     62.41% # Class of committed instruction
system.cpu1.commit.op_class_0::SimdFloatCmp            0      0.00%     62.41% # Class of committed instruction
system.cpu1.commit.op_class_0::SimdFloatCvt            0      0.00%     62.41% # Class of committed instruction
system.cpu1.commit.op_class_0::SimdFloatDiv            0      0.00%     62.41% # Class of committed instruction
system.cpu1.commit.op_class_0::SimdFloatMisc            0      0.00%     62.41% # Class of committed instruction
system.cpu1.commit.op_class_0::SimdFloatMult            0      0.00%     62.41% # Class of committed instruction
system.cpu1.commit.op_class_0::SimdFloatMultAcc            0      0.00%     62.41% # Class of committed instruction
system.cpu1.commit.op_class_0::SimdFloatSqrt            0      0.00%     62.41% # Class of committed instruction
system.cpu1.commit.op_class_0::SimdReduceAdd            0      0.00%     62.41% # Class of committed instruction
system.cpu1.commit.op_class_0::SimdReduceAlu            0      0.00%     62.41% # Class of committed instruction
system.cpu1.commit.op_class_0::SimdReduceCmp            0      0.00%     62.41% # Class of committed instruction
system.cpu1.commit.op_class_0::SimdFloatReduceAdd            0      0.00%     62.41% # Class of committed instruction
system.cpu1.commit.op_class_0::SimdFloatReduceCmp            0      0.00%     62.41% # Class of committed instruction
system.cpu1.commit.op_class_0::SimdAes              0      0.00%     62.41% # Class of committed instruction
system.cpu1.commit.op_class_0::SimdAesMix            0      0.00%     62.41% # Class of committed instruction
system.cpu1.commit.op_class_0::SimdSha1Hash            0      0.00%     62.41% # Class of committed instruction
system.cpu1.commit.op_class_0::SimdSha1Hash2            0      0.00%     62.41% # Class of committed instruction
system.cpu1.commit.op_class_0::SimdSha256Hash            0      0.00%     62.41% # Class of committed instruction
system.cpu1.commit.op_class_0::SimdSha256Hash2            0      0.00%     62.41% # Class of committed instruction
system.cpu1.commit.op_class_0::SimdShaSigma2            0      0.00%     62.41% # Class of committed instruction
system.cpu1.commit.op_class_0::SimdShaSigma3            0      0.00%     62.41% # Class of committed instruction
system.cpu1.commit.op_class_0::SimdPredAlu            0      0.00%     62.41% # Class of committed instruction
system.cpu1.commit.op_class_0::MemRead       12372085     29.00%     91.41% # Class of committed instruction
system.cpu1.commit.op_class_0::MemWrite       3665385      8.59%    100.00% # Class of committed instruction
system.cpu1.commit.op_class_0::FloatMemRead            0      0.00%    100.00% # Class of committed instruction
system.cpu1.commit.op_class_0::FloatMemWrite           12      0.00%    100.00% # Class of committed instruction
system.cpu1.commit.op_class_0::IprAccess            0      0.00%    100.00% # Class of committed instruction
system.cpu1.commit.op_class_0::InstPrefetch            0      0.00%    100.00% # Class of committed instruction
system.cpu1.commit.op_class_0::total         42665718                       # Class of committed instruction
system.cpu1.commit.refs                      16037482                       # Number of memory references committed
system.cpu1.commit.swp_count                        0                       # Number of s/w prefetches committed
system.cpu1.commit.vec_insts                        0                       # Number of committed Vector instructions.
system.cpu1.committedInsts                   41845895                       # Number of Instructions Simulated
system.cpu1.committedOps                     42665718                       # Number of Ops (including micro ops) Simulated
system.cpu1.cpi                              5.735433                       # CPI: Cycles Per Instruction
system.cpu1.cpi_total                        5.735433                       # CPI: Total CPI of All Threads
system.cpu1.decode.BlockedCycles            196717227                       # Number of cycles decode is blocked
system.cpu1.decode.BranchMispred               210032                       # Number of times decode detected a branch misprediction
system.cpu1.decode.BranchResolved             8065186                       # Number of times decode resolved a branch
system.cpu1.decode.DecodedInsts              57633102                       # Number of instructions handled by decode
system.cpu1.decode.IdleCycles                11516661                       # Number of cycles decode is idle
system.cpu1.decode.RunCycles                 26936912                       # Number of cycles decode is running
system.cpu1.decode.SquashCycles               1385476                       # Number of cycles decode is squashing
system.cpu1.decode.SquashedInsts               385581                       # Number of squashed instructions handled by decode
system.cpu1.decode.UnblockCycles              2159355                       # Number of cycles decode is unblocking
system.cpu1.dtb.accesses                            0                       # DTB accesses
system.cpu1.dtb.hits                                0                       # DTB hits
system.cpu1.dtb.misses                              0                       # DTB misses
system.cpu1.dtb.read_accesses                       0                       # DTB read accesses
system.cpu1.dtb.read_hits                           0                       # DTB read hits
system.cpu1.dtb.read_misses                         0                       # DTB read misses
system.cpu1.dtb.write_accesses                      0                       # DTB write accesses
system.cpu1.dtb.write_hits                          0                       # DTB write hits
system.cpu1.dtb.write_misses                        0                       # DTB write misses
system.cpu1.fetch.Branches                   14620777                       # Number of branches that fetch encountered
system.cpu1.fetch.CacheLines                  8847699                       # Number of cache lines fetched
system.cpu1.fetch.Cycles                    226931475                       # Number of cycles fetch has run and was not squashing or blocked
system.cpu1.fetch.IcacheSquashes               246557                       # Number of outstanding Icache misses that were squashed
system.cpu1.fetch.Insts                      59655678                       # Number of instructions fetch has processed
system.cpu1.fetch.MiscStallCycles                   1                       # Number of cycles fetch has spent waiting on interrupts, or bad addresses, or out of MSHRs
system.cpu1.fetch.SquashCycles                3184230                       # Number of cycles fetch has spent squashing
system.cpu1.fetch.branchRate                 0.060919                       # Number of branch fetches per cycle
system.cpu1.fetch.icacheStallCycles          10192040                       # Number of cycles fetch is stalled on an Icache miss
system.cpu1.fetch.predictedBranches           8681382                       # Number of branches that fetch has predicted taken
system.cpu1.fetch.rate                       0.248561                       # Number of inst fetches per cycle
system.cpu1.fetch.rateDist::samples         238715631                       # Number of instructions fetched each cycle (Total)
system.cpu1.fetch.rateDist::mean             0.253341                       # Number of instructions fetched each cycle (Total)
system.cpu1.fetch.rateDist::stdev            0.684186                       # Number of instructions fetched each cycle (Total)
system.cpu1.fetch.rateDist::underflows              0      0.00%      0.00% # Number of instructions fetched each cycle (Total)
system.cpu1.fetch.rateDist::0               200153214     83.85%     83.85% # Number of instructions fetched each cycle (Total)
system.cpu1.fetch.rateDist::1                24172306     10.13%     93.97% # Number of instructions fetched each cycle (Total)
system.cpu1.fetch.rateDist::2                 9430923      3.95%     97.92% # Number of instructions fetched each cycle (Total)
system.cpu1.fetch.rateDist::3                 3382706      1.42%     99.34% # Number of instructions fetched each cycle (Total)
system.cpu1.fetch.rateDist::4                  778814      0.33%     99.67% # Number of instructions fetched each cycle (Total)
system.cpu1.fetch.rateDist::5                  693794      0.29%     99.96% # Number of instructions fetched each cycle (Total)
system.cpu1.fetch.rateDist::6                   44402      0.02%     99.98% # Number of instructions fetched each cycle (Total)
system.cpu1.fetch.rateDist::7                   32295      0.01%     99.99% # Number of instructions fetched each cycle (Total)
system.cpu1.fetch.rateDist::8                   27177      0.01%    100.00% # Number of instructions fetched each cycle (Total)
system.cpu1.fetch.rateDist::overflows               0      0.00%    100.00% # Number of instructions fetched each cycle (Total)
system.cpu1.fetch.rateDist::min_value               0                       # Number of instructions fetched each cycle (Total)
system.cpu1.fetch.rateDist::max_value               8                       # Number of instructions fetched each cycle (Total)
system.cpu1.fetch.rateDist::total           238715631                       # Number of instructions fetched each cycle (Total)
system.cpu1.fp_regfile_reads                       12                       # number of floating regfile reads
system.cpu1.idleCycles                        1288693                       # Total number of cycles that the CPU has spent unscheduled due to idling
system.cpu1.iew.branchMispredicts             1424167                       # Number of branch mispredicts detected at execute
system.cpu1.iew.exec_branches                11451667                       # Number of branches executed
system.cpu1.iew.exec_nop                            0                       # number of nop insts executed
system.cpu1.iew.exec_rate                    0.203940                       # Inst execution rate
system.cpu1.iew.exec_refs                    18191491                       # number of memory reference insts executed
system.cpu1.iew.exec_stores                   5267864                       # Number of stores executed
system.cpu1.iew.exec_swp                            0                       # number of swp insts executed
system.cpu1.iew.iewBlockCycles              170221590                       # Number of cycles IEW is blocking
system.cpu1.iew.iewDispLoadInsts             13854765                       # Number of dispatched load instructions
system.cpu1.iew.iewDispNonSpecInsts            820440                       # Number of dispatched non-speculative instructions
system.cpu1.iew.iewDispSquashedInsts          1025751                       # Number of squashed instructions skipped by dispatch
system.cpu1.iew.iewDispStoreInsts             5846573                       # Number of dispatched store instructions
system.cpu1.iew.iewDispatchedInsts           52853049                       # Number of instructions dispatched to IQ
system.cpu1.iew.iewExecLoadInsts             12923627                       # Number of load instructions executed
system.cpu1.iew.iewExecSquashedInsts          1694662                       # Number of squashed instructions skipped in execute
system.cpu1.iew.iewExecutedInsts             48946445                       # Number of executed instructions
system.cpu1.iew.iewIQFullEvents                772337                       # Number of times the IQ has become full, causing a stall
system.cpu1.iew.iewIdleCycles                       0                       # Number of cycles IEW is idle
system.cpu1.iew.iewLSQFullEvents              2572259                       # Number of times the LSQ has become full, causing a stall
system.cpu1.iew.iewSquashCycles               1385476                       # Number of cycles IEW is squashing
system.cpu1.iew.iewUnblockCycles              4262057                       # Number of cycles IEW is unblocking
system.cpu1.iew.lsq.thread0.blockedLoads            0                       # Number of blocked loads due to partial load-store forwarding
system.cpu1.iew.lsq.thread0.cacheBlocked        38548                       # Number of times an access to memory failed due to the cache being blocked
system.cpu1.iew.lsq.thread0.forwLoads          198081                       # Number of loads that had data forwarded from stores
system.cpu1.iew.lsq.thread0.ignoredResponses        12324                       # Number of memory responses ignored because the instruction is squashed
system.cpu1.iew.lsq.thread0.invAddrLoads            0                       # Number of loads ignored due to an invalid address
system.cpu1.iew.lsq.thread0.invAddrSwpfs            0                       # Number of software prefetches ignored due to an invalid address
system.cpu1.iew.lsq.thread0.memOrderViolation         2232                       # Number of memory ordering violations
system.cpu1.iew.lsq.thread0.rescheduledLoads         2224                       # Number of loads that were rescheduled
system.cpu1.iew.lsq.thread0.squashedLoads      2302311                       # Number of loads squashed
system.cpu1.iew.lsq.thread0.squashedStores      1361545                       # Number of stores squashed
system.cpu1.iew.memOrderViolationEvents          2232                       # Number of memory order violations
system.cpu1.iew.predictedNotTakenIncorrect       543405                       # Number of branches that were predicted not taken incorrectly
system.cpu1.iew.predictedTakenIncorrect        880762                       # Number of branches that were predicted taken incorrectly
system.cpu1.iew.wb_consumers                 24605065                       # num instructions consuming a value
system.cpu1.iew.wb_count                     48021878                       # cumulative count of insts written-back
system.cpu1.iew.wb_fanout                    0.799210                       # average fanout of values written-back
system.cpu1.iew.wb_producers                 19664612                       # num instructions producing a value
system.cpu1.iew.wb_rate                      0.200088                       # insts written-back per cycle
system.cpu1.iew.wb_sent                      48048982                       # cumulative count of insts sent to commit
system.cpu1.int_regfile_reads                62257806                       # number of integer regfile reads
system.cpu1.int_regfile_writes               30703944                       # number of integer regfile writes
system.cpu1.ipc                              0.174355                       # IPC: Instructions Per Cycle
system.cpu1.ipc_total                        0.174355                       # IPC: Total IPC of All Threads
system.cpu1.iq.FU_type_0::No_OpClass          1639549      3.24%      3.24% # Type of FU issued
system.cpu1.iq.FU_type_0::IntAlu             30214248     59.66%     62.90% # Type of FU issued
system.cpu1.iq.FU_type_0::IntMult                  56      0.00%     62.90% # Type of FU issued
system.cpu1.iq.FU_type_0::IntDiv                   86      0.00%     62.90% # Type of FU issued
system.cpu1.iq.FU_type_0::FloatAdd                  0      0.00%     62.90% # Type of FU issued
system.cpu1.iq.FU_type_0::FloatCmp                  0      0.00%     62.90% # Type of FU issued
system.cpu1.iq.FU_type_0::FloatCvt                  0      0.00%     62.90% # Type of FU issued
system.cpu1.iq.FU_type_0::FloatMult                 0      0.00%     62.90% # Type of FU issued
system.cpu1.iq.FU_type_0::FloatMultAcc              0      0.00%     62.90% # Type of FU issued
system.cpu1.iq.FU_type_0::FloatDiv                  0      0.00%     62.90% # Type of FU issued
system.cpu1.iq.FU_type_0::FloatMisc                 0      0.00%     62.90% # Type of FU issued
system.cpu1.iq.FU_type_0::FloatSqrt                 0      0.00%     62.90% # Type of FU issued
system.cpu1.iq.FU_type_0::SimdAdd                   0      0.00%     62.90% # Type of FU issued
system.cpu1.iq.FU_type_0::SimdAddAcc                0      0.00%     62.90% # Type of FU issued
system.cpu1.iq.FU_type_0::SimdAlu                   0      0.00%     62.90% # Type of FU issued
system.cpu1.iq.FU_type_0::SimdCmp                   0      0.00%     62.90% # Type of FU issued
system.cpu1.iq.FU_type_0::SimdCvt                   0      0.00%     62.90% # Type of FU issued
system.cpu1.iq.FU_type_0::SimdMisc                  0      0.00%     62.90% # Type of FU issued
system.cpu1.iq.FU_type_0::SimdMult                  0      0.00%     62.90% # Type of FU issued
system.cpu1.iq.FU_type_0::SimdMultAcc               0      0.00%     62.90% # Type of FU issued
system.cpu1.iq.FU_type_0::SimdShift                 0      0.00%     62.90% # Type of FU issued
system.cpu1.iq.FU_type_0::SimdShiftAcc              0      0.00%     62.90% # Type of FU issued
system.cpu1.iq.FU_type_0::SimdDiv                   0      0.00%     62.90% # Type of FU issued
system.cpu1.iq.FU_type_0::SimdSqrt                  0      0.00%     62.90% # Type of FU issued
system.cpu1.iq.FU_type_0::SimdFloatAdd              0      0.00%     62.90% # Type of FU issued
system.cpu1.iq.FU_type_0::SimdFloatAlu              0      0.00%     62.90% # Type of FU issued
system.cpu1.iq.FU_type_0::SimdFloatCmp              0      0.00%     62.90% # Type of FU issued
system.cpu1.iq.FU_type_0::SimdFloatCvt              0      0.00%     62.90% # Type of FU issued
system.cpu1.iq.FU_type_0::SimdFloatDiv              0      0.00%     62.90% # Type of FU issued
system.cpu1.iq.FU_type_0::SimdFloatMisc             0      0.00%     62.90% # Type of FU issued
system.cpu1.iq.FU_type_0::SimdFloatMult             0      0.00%     62.90% # Type of FU issued
system.cpu1.iq.FU_type_0::SimdFloatMultAcc            0      0.00%     62.90% # Type of FU issued
system.cpu1.iq.FU_type_0::SimdFloatSqrt             0      0.00%     62.90% # Type of FU issued
system.cpu1.iq.FU_type_0::SimdReduceAdd             0      0.00%     62.90% # Type of FU issued
system.cpu1.iq.FU_type_0::SimdReduceAlu             0      0.00%     62.90% # Type of FU issued
system.cpu1.iq.FU_type_0::SimdReduceCmp             0      0.00%     62.90% # Type of FU issued
system.cpu1.iq.FU_type_0::SimdFloatReduceAdd            0      0.00%     62.90% # Type of FU issued
system.cpu1.iq.FU_type_0::SimdFloatReduceCmp            0      0.00%     62.90% # Type of FU issued
system.cpu1.iq.FU_type_0::SimdAes                   0      0.00%     62.90% # Type of FU issued
system.cpu1.iq.FU_type_0::SimdAesMix                0      0.00%     62.90% # Type of FU issued
system.cpu1.iq.FU_type_0::SimdSha1Hash              0      0.00%     62.90% # Type of FU issued
system.cpu1.iq.FU_type_0::SimdSha1Hash2             0      0.00%     62.90% # Type of FU issued
system.cpu1.iq.FU_type_0::SimdSha256Hash            0      0.00%     62.90% # Type of FU issued
system.cpu1.iq.FU_type_0::SimdSha256Hash2            0      0.00%     62.90% # Type of FU issued
system.cpu1.iq.FU_type_0::SimdShaSigma2             0      0.00%     62.90% # Type of FU issued
system.cpu1.iq.FU_type_0::SimdShaSigma3             0      0.00%     62.90% # Type of FU issued
system.cpu1.iq.FU_type_0::SimdPredAlu               0      0.00%     62.90% # Type of FU issued
system.cpu1.iq.FU_type_0::MemRead            14192912     28.03%     90.93% # Type of FU issued
system.cpu1.iq.FU_type_0::MemWrite            4594244      9.07%    100.00% # Type of FU issued
system.cpu1.iq.FU_type_0::FloatMemRead              0      0.00%    100.00% # Type of FU issued
system.cpu1.iq.FU_type_0::FloatMemWrite            12      0.00%    100.00% # Type of FU issued
system.cpu1.iq.FU_type_0::IprAccess                 0      0.00%    100.00% # Type of FU issued
system.cpu1.iq.FU_type_0::InstPrefetch              0      0.00%    100.00% # Type of FU issued
system.cpu1.iq.FU_type_0::total              50641107                       # Type of FU issued
system.cpu1.iq.fp_alu_accesses                     14                       # Number of floating point alu accesses
system.cpu1.iq.fp_inst_queue_reads                 26                       # Number of floating instruction queue reads
system.cpu1.iq.fp_inst_queue_wakeup_accesses           12                       # Number of floating instruction queue wakeup accesses
system.cpu1.iq.fp_inst_queue_writes                12                       # Number of floating instruction queue writes
system.cpu1.iq.fu_busy_cnt                     925095                       # FU busy when requested
system.cpu1.iq.fu_busy_rate                  0.018268                       # FU busy rate (busy events/executed inst)
system.cpu1.iq.fu_full::No_OpClass                  0      0.00%      0.00% # attempts to use FU when none available
system.cpu1.iq.fu_full::IntAlu                 146957     15.89%     15.89% # attempts to use FU when none available
system.cpu1.iq.fu_full::IntMult                     0      0.00%     15.89% # attempts to use FU when none available
system.cpu1.iq.fu_full::IntDiv                      0      0.00%     15.89% # attempts to use FU when none available
system.cpu1.iq.fu_full::FloatAdd                    0      0.00%     15.89% # attempts to use FU when none available
system.cpu1.iq.fu_full::FloatCmp                    0      0.00%     15.89% # attempts to use FU when none available
system.cpu1.iq.fu_full::FloatCvt                    0      0.00%     15.89% # attempts to use FU when none available
system.cpu1.iq.fu_full::FloatMult                   0      0.00%     15.89% # attempts to use FU when none available
system.cpu1.iq.fu_full::FloatMultAcc                0      0.00%     15.89% # attempts to use FU when none available
system.cpu1.iq.fu_full::FloatDiv                    0      0.00%     15.89% # attempts to use FU when none available
system.cpu1.iq.fu_full::FloatMisc                   0      0.00%     15.89% # attempts to use FU when none available
system.cpu1.iq.fu_full::FloatSqrt                   0      0.00%     15.89% # attempts to use FU when none available
system.cpu1.iq.fu_full::SimdAdd                     0      0.00%     15.89% # attempts to use FU when none available
system.cpu1.iq.fu_full::SimdAddAcc                  0      0.00%     15.89% # attempts to use FU when none available
system.cpu1.iq.fu_full::SimdAlu                     0      0.00%     15.89% # attempts to use FU when none available
system.cpu1.iq.fu_full::SimdCmp                     0      0.00%     15.89% # attempts to use FU when none available
system.cpu1.iq.fu_full::SimdCvt                     0      0.00%     15.89% # attempts to use FU when none available
system.cpu1.iq.fu_full::SimdMisc                    0      0.00%     15.89% # attempts to use FU when none available
system.cpu1.iq.fu_full::SimdMult                    0      0.00%     15.89% # attempts to use FU when none available
system.cpu1.iq.fu_full::SimdMultAcc                 0      0.00%     15.89% # attempts to use FU when none available
system.cpu1.iq.fu_full::SimdShift                   0      0.00%     15.89% # attempts to use FU when none available
system.cpu1.iq.fu_full::SimdShiftAcc                0      0.00%     15.89% # attempts to use FU when none available
system.cpu1.iq.fu_full::SimdDiv                     0      0.00%     15.89% # attempts to use FU when none available
system.cpu1.iq.fu_full::SimdSqrt                    0      0.00%     15.89% # attempts to use FU when none available
system.cpu1.iq.fu_full::SimdFloatAdd                0      0.00%     15.89% # attempts to use FU when none available
system.cpu1.iq.fu_full::SimdFloatAlu                0      0.00%     15.89% # attempts to use FU when none available
system.cpu1.iq.fu_full::SimdFloatCmp                0      0.00%     15.89% # attempts to use FU when none available
system.cpu1.iq.fu_full::SimdFloatCvt                0      0.00%     15.89% # attempts to use FU when none available
system.cpu1.iq.fu_full::SimdFloatDiv                0      0.00%     15.89% # attempts to use FU when none available
system.cpu1.iq.fu_full::SimdFloatMisc               0      0.00%     15.89% # attempts to use FU when none available
system.cpu1.iq.fu_full::SimdFloatMult               0      0.00%     15.89% # attempts to use FU when none available
system.cpu1.iq.fu_full::SimdFloatMultAcc            0      0.00%     15.89% # attempts to use FU when none available
system.cpu1.iq.fu_full::SimdFloatSqrt               0      0.00%     15.89% # attempts to use FU when none available
system.cpu1.iq.fu_full::SimdReduceAdd               0      0.00%     15.89% # attempts to use FU when none available
system.cpu1.iq.fu_full::SimdReduceAlu               0      0.00%     15.89% # attempts to use FU when none available
system.cpu1.iq.fu_full::SimdReduceCmp               0      0.00%     15.89% # attempts to use FU when none available
system.cpu1.iq.fu_full::SimdFloatReduceAdd            0      0.00%     15.89% # attempts to use FU when none available
system.cpu1.iq.fu_full::SimdFloatReduceCmp            0      0.00%     15.89% # attempts to use FU when none available
system.cpu1.iq.fu_full::SimdAes                     0      0.00%     15.89% # attempts to use FU when none available
system.cpu1.iq.fu_full::SimdAesMix                  0      0.00%     15.89% # attempts to use FU when none available
system.cpu1.iq.fu_full::SimdSha1Hash                0      0.00%     15.89% # attempts to use FU when none available
system.cpu1.iq.fu_full::SimdSha1Hash2               0      0.00%     15.89% # attempts to use FU when none available
system.cpu1.iq.fu_full::SimdSha256Hash              0      0.00%     15.89% # attempts to use FU when none available
system.cpu1.iq.fu_full::SimdSha256Hash2             0      0.00%     15.89% # attempts to use FU when none available
system.cpu1.iq.fu_full::SimdShaSigma2               0      0.00%     15.89% # attempts to use FU when none available
system.cpu1.iq.fu_full::SimdShaSigma3               0      0.00%     15.89% # attempts to use FU when none available
system.cpu1.iq.fu_full::SimdPredAlu                 0      0.00%     15.89% # attempts to use FU when none available
system.cpu1.iq.fu_full::MemRead                683090     73.84%     89.73% # attempts to use FU when none available
system.cpu1.iq.fu_full::MemWrite                95046     10.27%    100.00% # attempts to use FU when none available
[...]
system.cpu1.dcache.WriteReq_mshr_miss_latency::.cpu1.data   1748879996                       # number of WriteReq MSHR miss cycles
system.cpu1.dcache.WriteReq_mshr_miss_latency::total   1748879996                       # number of WriteReq MSHR miss cycles
system.cpu1.dcache.WriteReq_mshr_miss_rate::.cpu1.data     0.026079                       # mshr miss rate for WriteReq accesses
system.cpu1.dcache.WriteReq_mshr_miss_rate::total     0.026079                       # mshr miss rate for WriteReq accesses
system.cpu1.dcache.WriteReq_avg_mshr_miss_latency::.cpu1.data 121374.140884                       # average WriteReq mshr miss latency
system.cpu1.dcache.WriteReq_avg_mshr_miss_latency::total 121374.140884                       # average WriteReq mshr miss latency
system.cpu1.dcache.LoadLockedReq_hits::.cpu1.data       214831                       # number of LoadLockedReq hits
system.cpu1.dcache.LoadLockedReq_hits::total       214831                       # number of LoadLockedReq hits
system.cpu1.dcache.LoadLockedReq_misses::.cpu1.data          929                       # number of LoadLockedReq misses
system.cpu1.dcache.LoadLockedReq_misses::total          929                       # number of LoadLockedReq misses
system.cpu1.dcache.LoadLockedReq_miss_latency::.cpu1.data     27771500                       # number of LoadLockedReq miss cycles
system.cpu1.dcache.LoadLockedReq_miss_latency::total     27771500                       # number of LoadLockedReq miss cycles
system.cpu1.dcache.LoadLockedReq_accesses::.cpu1.data       215760                       # number of LoadLockedReq accesses(hits+misses)
system.cpu1.dcache.LoadLockedReq_accesses::total       215760                       # number of LoadLockedReq accesses(hits+misses)
system.cpu1.dcache.LoadLockedReq_miss_rate::.cpu1.data     0.004306                       # miss rate for LoadLockedReq accesses
system.cpu1.dcache.LoadLockedReq_miss_rate::total     0.004306                       # miss rate for LoadLockedReq accesses
system.cpu1.dcache.LoadLockedReq_avg_miss_latency::.cpu1.data 29893.972013                       # average LoadLockedReq miss latency
system.cpu1.dcache.LoadLockedReq_avg_miss_latency::total 29893.972013                       # average LoadLockedReq miss latency
system.cpu1.dcache.LoadLockedReq_mshr_hits::.cpu1.data          190                       # number of LoadLockedReq MSHR hits
system.cpu1.dcache.LoadLockedReq_mshr_hits::total          190                       # number of LoadLockedReq MSHR hits
system.cpu1.dcache.LoadLockedReq_mshr_misses::.cpu1.data          739                       # number of LoadLockedReq MSHR misses
system.cpu1.dcache.LoadLockedReq_mshr_misses::total          739                       # number of LoadLockedReq MSHR misses
system.cpu1.dcache.LoadLockedReq_mshr_miss_latency::.cpu1.data     12451000                       # number of LoadLockedReq MSHR miss cycles
system.cpu1.dcache.LoadLockedReq_mshr_miss_latency::total     12451000                       # number of LoadLockedReq MSHR miss cycles
system.cpu1.dcache.LoadLockedReq_mshr_miss_rate::.cpu1.data     0.003425                       # mshr miss rate for LoadLockedReq accesses
system.cpu1.dcache.LoadLockedReq_mshr_miss_rate::total     0.003425                       # mshr miss rate for LoadLockedReq accesses
system.cpu1.dcache.LoadLockedReq_avg_mshr_miss_latency::.cpu1.data 16848.443843                       # average LoadLockedReq mshr miss latency
system.cpu1.dcache.LoadLockedReq_avg_mshr_miss_latency::total 16848.443843                       # average LoadLockedReq mshr miss latency
system.cpu1.dcache.StoreCondReq_hits::.cpu1.data       212899                       # number of StoreCondReq hits
system.cpu1.dcache.StoreCondReq_hits::total       212899                       # number of StoreCondReq hits
system.cpu1.dcache.StoreCondReq_misses::.cpu1.data         2420                       # number of StoreCondReq misses
system.cpu1.dcache.StoreCondReq_misses::total         2420                       # number of StoreCondReq misses
system.cpu1.dcache.StoreCondReq_miss_latency::.cpu1.data     45260000                       # number of StoreCondReq miss cycles
system.cpu1.dcache.StoreCondReq_miss_latency::total     45260000                       # number of StoreCondReq miss cycles
system.cpu1.dcache.StoreCondReq_accesses::.cpu1.data       215319                       # number of StoreCondReq accesses(hits+misses)
system.cpu1.dcache.StoreCondReq_accesses::total       215319                       # number of StoreCondReq accesses(hits+misses)
system.cpu1.dcache.StoreCondReq_miss_rate::.cpu1.data     0.011239                       # miss rate for StoreCondReq accesses
system.cpu1.dcache.StoreCondReq_miss_rate::total     0.011239                       # miss rate for StoreCondReq accesses
system.cpu1.dcache.StoreCondReq_avg_miss_latency::.cpu1.data 18702.479339                       # average StoreCondReq miss latency
system.cpu1.dcache.StoreCondReq_avg_miss_latency::total 18702.479339                       # average StoreCondReq miss latency
system.cpu1.dcache.StoreCondReq_mshr_misses::.cpu1.data         2407                       # number of StoreCondReq MSHR misses
system.cpu1.dcache.StoreCondReq_mshr_misses::total         2407                       # number of StoreCondReq MSHR misses
system.cpu1.dcache.StoreCondReq_mshr_miss_latency::.cpu1.data     42914000                       # number of StoreCondReq MSHR miss cycles
system.cpu1.dcache.StoreCondReq_mshr_miss_latency::total     42914000                       # number of StoreCondReq MSHR miss cycles
system.cpu1.dcache.StoreCondReq_mshr_miss_rate::.cpu1.data     0.011179                       # mshr miss rate for StoreCondReq accesses
system.cpu1.dcache.StoreCondReq_mshr_miss_rate::total     0.011179                       # mshr miss rate for StoreCondReq accesses
system.cpu1.dcache.StoreCondReq_avg_mshr_miss_latency::.cpu1.data 17828.832572                       # average StoreCondReq mshr miss latency
system.cpu1.dcache.StoreCondReq_avg_mshr_miss_latency::total 17828.832572                       # average StoreCondReq mshr miss latency
system.cpu1.dcache.StoreCondFailReq_miss_latency::.cpu1.data       782500                       # number of StoreCondFailReq miss cycles
system.cpu1.dcache.StoreCondFailReq_miss_latency::total       782500                       # number of StoreCondFailReq miss cycles
system.cpu1.dcache.StoreCondFailReq_avg_miss_latency::.cpu1.data          inf                       # average StoreCondFailReq miss latency
system.cpu1.dcache.StoreCondFailReq_avg_miss_latency::total          inf                       # average StoreCondFailReq miss latency
system.cpu1.dcache.StoreCondFailReq_mshr_miss_latency::.cpu1.data       721500                       # number of StoreCondFailReq MSHR miss cycles
system.cpu1.dcache.StoreCondFailReq_mshr_miss_latency::total       721500                       # number of StoreCondFailReq MSHR miss cycles
system.cpu1.dcache.StoreCondFailReq_avg_mshr_miss_latency::.cpu1.data          inf                       # average StoreCondFailReq mshr miss latency
system.cpu1.dcache.StoreCondFailReq_avg_mshr_miss_latency::total          inf                       # average StoreCondFailReq mshr miss latency
system.cpu1.dcache.SwapReq_hits::.cpu1.data          368                       # number of SwapReq hits
system.cpu1.dcache.SwapReq_hits::total            368                       # number of SwapReq hits
system.cpu1.dcache.SwapReq_misses::.cpu1.data          600                       # number of SwapReq misses
system.cpu1.dcache.SwapReq_misses::total          600                       # number of SwapReq misses
system.cpu1.dcache.SwapReq_miss_latency::.cpu1.data     10365500                       # number of SwapReq miss cycles
system.cpu1.dcache.SwapReq_miss_latency::total     10365500                       # number of SwapReq miss cycles
system.cpu1.dcache.SwapReq_accesses::.cpu1.data          968                       # number of SwapReq accesses(hits+misses)
system.cpu1.dcache.SwapReq_accesses::total          968                       # number of SwapReq accesses(hits+misses)
system.cpu1.dcache.SwapReq_miss_rate::.cpu1.data     0.619835                       # miss rate for SwapReq accesses
system.cpu1.dcache.SwapReq_miss_rate::total     0.619835                       # miss rate for SwapReq accesses
system.cpu1.dcache.SwapReq_avg_miss_latency::.cpu1.data 17275.833333                       # average SwapReq miss latency
system.cpu1.dcache.SwapReq_avg_miss_latency::total 17275.833333                       # average SwapReq miss latency
system.cpu1.dcache.SwapReq_mshr_misses::.cpu1.data          600                       # number of SwapReq MSHR misses
system.cpu1.dcache.SwapReq_mshr_misses::total          600                       # number of SwapReq MSHR misses
system.cpu1.dcache.SwapReq_mshr_miss_latency::.cpu1.data      9765500                       # number of SwapReq MSHR miss cycles
system.cpu1.dcache.SwapReq_mshr_miss_latency::total      9765500                       # number of SwapReq MSHR miss cycles
system.cpu1.dcache.SwapReq_mshr_miss_rate::.cpu1.data     0.619835                       # mshr miss rate for SwapReq accesses
system.cpu1.dcache.SwapReq_mshr_miss_rate::total     0.619835                       # mshr miss rate for SwapReq accesses
system.cpu1.dcache.SwapReq_avg_mshr_miss_latency::.cpu1.data 16275.833333                       # average SwapReq mshr miss latency
system.cpu1.dcache.SwapReq_avg_mshr_miss_latency::total 16275.833333                       # average SwapReq mshr miss latency
system.cpu1.dcache.tags.pwrStateResidencyTicks::UNDEFINED 114272916000                       # Cumulative time (in ticks) in various power states
system.cpu1.dcache.tags.tagsinuse           31.638272                       # Cycle average of tags in use
system.cpu1.dcache.tags.total_refs           10726634                       # Total number of references to valid blocks.
system.cpu1.dcache.tags.sampled_refs          1549540                       # Sample count of references to valid blocks.
system.cpu1.dcache.tags.avg_refs             6.922463                       # Average number of references to valid blocks.
system.cpu1.dcache.tags.warmup_cycle                0                       # Cycle when the warmup percentage was hit.
system.cpu1.dcache.tags.occ_blocks::.cpu1.data    31.638272                       # Average occupied blocks per requestor
system.cpu1.dcache.tags.occ_percent::.cpu1.data     0.988696                       # Average percentage of cache occupancy
system.cpu1.dcache.tags.occ_percent::total     0.988696                       # Average percentage of cache occupancy
system.cpu1.dcache.tags.occ_task_id_blocks::1024           29                       # Occupied blocks per task id
system.cpu1.dcache.tags.age_task_id_blocks_1024::1           29                       # Occupied blocks per task id
system.cpu1.dcache.tags.occ_task_id_percent::1024     0.906250                       # Percentage of cache occupancy per task id
system.cpu1.dcache.tags.tag_accesses         24503112                       # Number of tag accesses
system.cpu1.dcache.tags.data_accesses        24503112                       # Number of data accesses
system.cpu_clk_domain.clock                       500                       # Clock period in ticks
system.tol2bus.pwrStateResidencyTicks::UNDEFINED 114272916000                       # Cumulative time (in ticks) in various power states
system.tol2bus.trans_dist::ReadResp           6040971                       # Transaction distribution
system.tol2bus.trans_dist::ReadRespWithInvalidate            2                       # Transaction distribution
system.tol2bus.trans_dist::WritebackDirty      1353884                       # Transaction distribution
system.tol2bus.trans_dist::WritebackClean      5385964                       # Transaction distribution
system.tol2bus.trans_dist::CleanEvict         8777881                       # Transaction distribution
system.tol2bus.trans_dist::UpgradeReq            8207                       # Transaction distribution
system.tol2bus.trans_dist::SCUpgradeReq          9156                       # Transaction distribution
system.tol2bus.trans_dist::UpgradeResp          17363                       # Transaction distribution
system.tol2bus.trans_dist::SCUpgradeFailReq          228                       # Transaction distribution
system.tol2bus.trans_dist::UpgradeFailResp          228                       # Transaction distribution
system.tol2bus.trans_dist::ReadExReq            68300                       # Transaction distribution
system.tol2bus.trans_dist::ReadExResp           68300                       # Transaction distribution
system.tol2bus.trans_dist::ReadCleanReq        234834                       # Transaction distribution
system.tol2bus.trans_dist::ReadSharedReq      5806140                       # Transaction distribution
system.tol2bus.trans_dist::InvalidateReq            2                       # Transaction distribution
system.tol2bus.trans_dist::InvalidateResp            2                       # Transaction distribution
system.tol2bus.pkt_count_system.cpu0.icache.mem_side::system.l2.cpu_side       653956                       # Packet count per connected master and slave (bytes)
system.tol2bus.pkt_count_system.cpu0.dcache.mem_side::system.l2.cpu_side      5160633                       # Packet count per connected master and slave (bytes)
system.tol2bus.pkt_count_system.cpu1.icache.mem_side::system.l2.cpu_side        16908                       # Packet count per connected master and slave (bytes)
system.tol2bus.pkt_count_system.cpu1.dcache.mem_side::system.l2.cpu_side      4641794                       # Packet count per connected master and slave (bytes)
system.tol2bus.pkt_count_system.cpu2.icache.mem_side::system.l2.cpu_side        16836                       # Packet count per connected master and slave (bytes)
system.tol2bus.pkt_count_system.cpu2.dcache.mem_side::system.l2.cpu_side      4323806                       # Packet count per connected master and slave (bytes)
system.tol2bus.pkt_count_system.cpu3.icache.mem_side::system.l2.cpu_side        16800                       # Packet count per connected master and slave (bytes)
system.tol2bus.pkt_count_system.cpu3.dcache.mem_side::system.l2.cpu_side      3479108                       # Packet count per connected master and slave (bytes)
system.tol2bus.pkt_count::total              18309841                       # Packet count per connected master and slave (bytes)
system.tol2bus.pkt_size_system.cpu0.icache.mem_side::system.l2.cpu_side     27902080                       # Cumulative packet size per connected master and slave (bytes)
system.tol2bus.pkt_size_system.cpu0.dcache.mem_side::system.l2.cpu_side    219455104                       # Cumulative packet size per connected master and slave (bytes)
system.tol2bus.pkt_size_system.cpu1.icache.mem_side::system.l2.cpu_side       721408                       # Cumulative packet size per connected master and slave (bytes)
system.tol2bus.pkt_size_system.cpu1.dcache.mem_side::system.l2.cpu_side    197493312                       # Cumulative packet size per connected master and slave (bytes)
system.tol2bus.pkt_size_system.cpu2.icache.mem_side::system.l2.cpu_side       718336                       # Cumulative packet size per connected master and slave (bytes)
system.tol2bus.pkt_size_system.cpu2.dcache.mem_side::system.l2.cpu_side    183947136                       # Cumulative packet size per connected master and slave (bytes)
system.tol2bus.pkt_size_system.cpu3.icache.mem_side::system.l2.cpu_side       716800                       # Cumulative packet size per connected master and slave (bytes)
system.tol2bus.pkt_size_system.cpu3.dcache.mem_side::system.l2.cpu_side    147989056                       # Cumulative packet size per connected master and slave (bytes)
system.tol2bus.pkt_size::total              778943232                       # Cumulative packet size per connected master and slave (bytes)
system.tol2bus.snoops                         9461621                       # Total snoops (count)
system.tol2bus.snoopTraffic                  43415104                       # Total snoop traffic (bytes)
system.tol2bus.snoop_fanout::samples         15556454                       # Request fanout histogram
system.tol2bus.snoop_fanout::mean            0.495649                       # Request fanout histogram
system.tol2bus.snoop_fanout::stdev           0.785422                       # Request fanout histogram
system.tol2bus.snoop_fanout::underflows             0      0.00%      0.00% # Request fanout histogram
system.tol2bus.snoop_fanout::0                9721872     62.49%     62.49% # Request fanout histogram
system.tol2bus.snoop_fanout::1                4751002     30.54%     93.03% # Request fanout histogram
system.tol2bus.snoop_fanout::2                 476739      3.06%     96.10% # Request fanout histogram
system.tol2bus.snoop_fanout::3                 421299      2.71%     98.81% # Request fanout histogram
system.tol2bus.snoop_fanout::4                 185542      1.19%    100.00% # Request fanout histogram
system.tol2bus.snoop_fanout::5                      0      0.00%    100.00% # Request fanout histogram
system.tol2bus.snoop_fanout::6                      0      0.00%    100.00% # Request fanout histogram
system.tol2bus.snoop_fanout::7                      0      0.00%    100.00% # Request fanout histogram
system.tol2bus.snoop_fanout::8                      0      0.00%    100.00% # Request fanout histogram
system.tol2bus.snoop_fanout::overflows              0      0.00%    100.00% # Request fanout histogram
system.tol2bus.snoop_fanout::min_value              0                       # Request fanout histogram
system.tol2bus.snoop_fanout::max_value              4                       # Request fanout histogram
system.tol2bus.snoop_fanout::total           15556454                       # Request fanout histogram
system.tol2bus.reqLayer0.occupancy        12195720348                       # Layer occupancy (ticks)
system.tol2bus.reqLayer0.utilization             10.7                       # Layer utilization (%)
system.tol2bus.respLayer5.occupancy        2174560106                       # Layer occupancy (ticks)
system.tol2bus.respLayer5.utilization             1.9                       # Layer utilization (%)
system.tol2bus.respLayer4.occupancy           8806015                       # Layer occupancy (ticks)
system.tol2bus.respLayer4.utilization             0.0                       # Layer utilization (%)
system.tol2bus.respLayer7.occupancy        1751547705                       # Layer occupancy (ticks)
system.tol2bus.respLayer7.utilization             1.5                       # Layer utilization (%)
system.tol2bus.respLayer6.occupancy           8744116                       # Layer occupancy (ticks)
system.tol2bus.respLayer6.utilization             0.0                       # Layer utilization (%)
system.tol2bus.respLayer1.occupancy        2588163897                       # Layer occupancy (ticks)
system.tol2bus.respLayer1.utilization             2.3                       # Layer utilization (%)
system.tol2bus.respLayer0.occupancy         327180070                       # Layer occupancy (ticks)
system.tol2bus.respLayer0.utilization             0.3                       # Layer utilization (%)
system.tol2bus.respLayer3.occupancy        2333166253                       # Layer occupancy (ticks)
system.tol2bus.respLayer3.utilization             2.0                       # Layer utilization (%)
system.tol2bus.respLayer2.occupancy           8810577                       # Layer occupancy (ticks)
system.tol2bus.respLayer2.utilization             0.0                       # Layer utilization (%)

---------- End Simulation Statistics   ----------
