
---------- Begin Simulation Statistics ----------
final_tick                                39062415000                       # Number of ticks from beginning of simulation (restored from checkpoints and never reset)
host_inst_rate                                 102785                       # Simulator instruction rate (inst/s)
host_mem_usage                                 738052                       # Number of bytes of host memory used
host_op_rate                                   103212                       # Simulator op (including micro ops) rate (op/s)
host_seconds                                   615.67                       # Real time elapsed on the host
host_tick_rate                               63447326                       # Simulator tick rate (ticks/s)
sim_freq                                 1000000000000                       # Frequency of simulated ticks
sim_insts                                    63281045                       # Number of instructions simulated
sim_ops                                      63544006                       # Number of ops (including micro ops) simulated
sim_seconds                                  0.039062                       # Number of seconds simulated
sim_ticks                                 39062415000                       # Number of ticks simulated
system.cpu0.branchPred.BTBCorrect                   0                       # Number of correct BTB predictions (this stat may not work properly.
system.cpu0.branchPred.BTBHitPct            84.360191                       # BTB Hit Percentage
system.cpu0.branchPred.BTBHits               10640059                       # Number of BTB hits
system.cpu0.branchPred.BTBLookups            12612654                       # Number of BTB lookups
system.cpu0.branchPred.RASInCorrect                 0                       # Number of incorrect RAS predictions.
system.cpu0.branchPred.condIncorrect          2808937                       # Number of conditional branches incorrect
system.cpu0.branchPred.condPredicted         11782869                       # Number of conditional branches predicted
system.cpu0.branchPred.indirectHits            896984                       # Number of indirect target hits.
system.cpu0.branchPred.indirectLookups         904100                       # Number of indirect predictor lookups.
system.cpu0.branchPred.indirectMisses            7116                       # Number of indirect misses.
system.cpu0.branchPred.lookups               14649893                       # Number of BP lookups
system.cpu0.branchPred.usedRAS                      0                       # Number of times the RAS was used to get a target.
system.cpu0.branchPredindirectMispredicted         3893                       # Number of mispredicted indirect branches.
system.cpu0.commit.amos                         65825                       # Number of atomic instructions committed
system.cpu0.commit.branchMispredicts          1506995                       # The number of times a branch was mispredicted
system.cpu0.commit.branches                   8103901                       # Number of branches committed
system.cpu0.commit.bw_lim_events               297796                       # number cycles where commit BW limit reached
system.cpu0.commit.commitNonSpecStalls         197946                       # The number of times commit has been forced to stall to communicate backwards
system.cpu0.commit.commitSquashedInsts       16944929                       # The number of squashed insts skipped by commit
system.cpu0.commit.committedInsts            52845563                       # Number of instructions committed
system.cpu0.commit.committedOps              52911362                       # Number of ops (including micro ops) committed
system.cpu0.commit.committed_per_cycle::samples     73841909                       # Number of insts commited each cycle
system.cpu0.commit.committed_per_cycle::mean     0.716549                       # Number of insts commited each cycle
system.cpu0.commit.committed_per_cycle::stdev     1.135452                       # Number of insts commited each cycle
system.cpu0.commit.committed_per_cycle::underflows            0      0.00%      0.00% # Number of insts commited each cycle
system.cpu0.commit.committed_per_cycle::0     44005763     59.59%     59.59% # Number of insts commited each cycle
system.cpu0.commit.committed_per_cycle::1     15726959     21.30%     80.89% # Number of insts commited each cycle
system.cpu0.commit.committed_per_cycle::2      8851990     11.99%     92.88% # Number of insts commited each cycle
system.cpu0.commit.committed_per_cycle::3      3697464      5.01%     97.89% # Number of insts commited each cycle
system.cpu0.commit.committed_per_cycle::4       615390      0.83%     98.72% # Number of insts commited each cycle
system.cpu0.commit.committed_per_cycle::5       439397      0.60%     99.32% # Number of insts commited each cycle
system.cpu0.commit.committed_per_cycle::6       102932      0.14%     99.46% # Number of insts commited each cycle
system.cpu0.commit.committed_per_cycle::7       104218      0.14%     99.60% # Number of insts commited each cycle
system.cpu0.commit.committed_per_cycle::8       297796      0.40%    100.00% # Number of insts commited each cycle
system.cpu0.commit.committed_per_cycle::overflows            0      0.00%    100.00% # Number of insts commited each cycle
system.cpu0.commit.committed_per_cycle::min_value            0                       # Number of insts commited each cycle
system.cpu0.commit.committed_per_cycle::max_value            8                       # Number of insts commited each cycle
system.cpu0.commit.committed_per_cycle::total     73841909                       # Number of insts commited each cycle
system.cpu0.commit.fp_insts                   5636177                       # Number of committed floating point instructions.
system.cpu0.commit.function_calls             1603918                       # Number of function calls committed.
system.cpu0.commit.int_insts                 50300798                       # Number of committed integer instructions.
system.cpu0.commit.loads                      5137892                       # Number of loads committed
system.cpu0.commit.membars                     131670                       # Number of memory barriers committed
system.cpu0.commit.op_class_0::No_OpClass       131679      0.25%      0.25% # Class of committed instruction
system.cpu0.commit.op_class_0::IntAlu        39924118     75.45%     75.70% # Class of committed instruction
system.cpu0.commit.op_class_0::IntMult           6136      0.01%     75.72% # Class of committed instruction
system.cpu0.commit.op_class_0::IntDiv            8240      0.02%     75.73% # Class of committed instruction
system.cpu0.commit.op_class_0::FloatAdd       1572864      2.97%     78.70% # Class of committed instruction
system.cpu0.commit.op_class_0::FloatCmp       2359302      4.46%     83.16% # Class of committed instruction
system.cpu0.commit.op_class_0::FloatCvt        851984      1.61%     84.77% # Class of committed instruction
system.cpu0.commit.op_class_0::FloatMult       786432      1.49%     86.26% # Class of committed instruction
system.cpu0.commit.op_class_0::FloatMultAcc            0      0.00%     86.26% # Class of committed instruction
system.cpu0.commit.op_class_0::FloatDiv             2      0.00%     86.26% # Class of committed instruction
system.cpu0.commit.op_class_0::FloatMisc            6      0.00%     86.26% # Class of committed instruction
system.cpu0.commit.op_class_0::FloatSqrt            0      0.00%     86.26% # Class of committed instruction
system.cpu0.commit.op_class_0::SimdAdd              0      0.00%     86.26% # Class of committed instruction
system.cpu0.commit.op_class_0::SimdAddAcc            0      0.00%     86.26% # Class of committed instruction
system.cpu0.commit.op_class_0::SimdAlu              0      0.00%     86.26% # Class of committed instruction
system.cpu0.commit.op_class_0::SimdCmp              0      0.00%     86.26% # Class of committed instruction
system.cpu0.commit.op_class_0::SimdCvt              0      0.00%     86.26% # Class of committed instruction
system.cpu0.commit.op_class_0::SimdMisc             0      0.00%     86.26% # Class of committed instruction
system.cpu0.commit.op_class_0::SimdMult             0      0.00%     86.26% # Class of committed instruction
system.cpu0.commit.op_class_0::SimdMultAcc            0      0.00%     86.26% # Class of committed instruction
system.cpu0.commit.op_class_0::SimdShift            0      0.00%     86.26% # Class of committed instruction
system.cpu0.commit.op_class_0::SimdShiftAcc            0      0.00%     86.26% # Class of committed instruction
system.cpu0.commit.op_class_0::SimdDiv              0      0.00%     86.26% # Class of committed instruction
system.cpu0.commit.op_class_0::SimdSqrt             0      0.00%     86.26% # Class of committed instruction
system.cpu0.commit.op_class_0::SimdFloatAdd            0      0.00%     86.26% # Class of committed instruction
system.cpu0.commit.op_class_0::SimdFloatAlu            0      0.00%     86.26% # Class of committed instruction
system.cpu0.commit.op_class_0::SimdFloatCmp            0      0.00%     86.26% # Class of committed instruction
system.cpu0.commit.op_class_0::SimdFloatCvt            0      0.00%     86.26% # Class of committed instruction
system.cpu0.commit.op_class_0::SimdFloatDiv            0      0.00%     86.26% # Class of committed instruction
system.cpu0.commit.op_class_0::SimdFloatMisc            0      0.00%     86.26% # Class of committed instruction
system.cpu0.commit.op_class_0::SimdFloatMult            0      0.00%     86.26% # Class of committed instruction
system.cpu0.commit.op_class_0::SimdFloatMultAcc            0      0.00%     86.26% # Class of committed instruction
system.cpu0.commit.op_class_0::SimdFloatSqrt            0      0.00%     86.26% # Class of committed instruction
system.cpu0.commit.op_class_0::SimdReduceAdd            0      0.00%     86.26% # Class of committed instruction
system.cpu0.commit.op_class_0::SimdReduceAlu            0      0.00%     86.26% # Class of committed instruction
system.cpu0.commit.op_class_0::SimdReduceCmp            0      0.00%     86.26% # Class of committed instruction
system.cpu0.commit.op_class_0::SimdFloatReduceAdd            0      0.00%     86.26% # Class of committed instruction
system.cpu0.commit.op_class_0::SimdFloatReduceCmp            0      0.00%     86.26% # Class of committed instruction
system.cpu0.commit.op_class_0::SimdAes              0      0.00%     86.26% # Class of committed instruction
system.cpu0.commit.op_class_0::SimdAesMix            0      0.00%     86.26% # Class of committed instruction
system.cpu0.commit.op_class_0::SimdSha1Hash            0      0.00%     86.26% # Class of committed instruction
system.cpu0.commit.op_class_0::SimdSha1Hash2            0      0.00%     86.26% # Class of committed instruction
system.cpu0.commit.op_class_0::SimdSha256Hash            0      0.00%     86.26% # Class of committed instruction
system.cpu0.commit.op_class_0::SimdSha256Hash2            0      0.00%     86.26% # Class of committed instruction
system.cpu0.commit.op_class_0::SimdShaSigma2            0      0.00%     86.26% # Class of committed instruction
system.cpu0.commit.op_class_0::SimdShaSigma3            0      0.00%     86.26% # Class of committed instruction
system.cpu0.commit.op_class_0::SimdPredAlu            0      0.00%     86.26% # Class of committed instruction
system.cpu0.commit.op_class_0::MemRead        5138159      9.71%     95.97% # Class of committed instruction
system.cpu0.commit.op_class_0::MemWrite       2066853      3.91%     99.88% # Class of committed instruction
system.cpu0.commit.op_class_0::FloatMemRead        65558      0.12%    100.00% # Class of committed instruction
system.cpu0.commit.op_class_0::FloatMemWrite           29      0.00%    100.00% # Class of committed instruction
system.cpu0.commit.op_class_0::IprAccess            0      0.00%    100.00% # Class of committed instruction
system.cpu0.commit.op_class_0::InstPrefetch            0      0.00%    100.00% # Class of committed instruction
system.cpu0.commit.op_class_0::total         52911362                       # Class of committed instruction
system.cpu0.commit.refs                       7270599                       # Number of memory references committed
system.cpu0.commit.swp_count                        0                       # Number of s/w prefetches committed
system.cpu0.commit.vec_insts                        0                       # Number of committed Vector instructions.
system.cpu0.committedInsts                   52845563                       # Number of Instructions Simulated
system.cpu0.committedOps                     52911362                       # Number of Ops (including micro ops) Simulated
system.cpu0.cpi                              1.456012                       # CPI: Cycles Per Instruction
system.cpu0.cpi_total                        1.456012                       # CPI: Total CPI of All Threads
system.cpu0.decode.BlockedCycles             15652251                       # Number of cycles decode is blocked
system.cpu0.decode.BranchMispred              1302208                       # Number of times decode detected a branch misprediction
system.cpu0.decode.BranchResolved             9516313                       # Number of times decode resolved a branch
system.cpu0.decode.DecodedInsts              75871307                       # Number of instructions handled by decode
system.cpu0.decode.IdleCycles                15181218                       # Number of cycles decode is idle
system.cpu0.decode.RunCycles                 43356954                       # Number of cycles decode is running
system.cpu0.decode.SquashCycles               1507277                       # Number of cycles decode is squashing
system.cpu0.decode.SquashedInsts              2510941                       # Number of squashed instructions handled by decode
system.cpu0.decode.UnblockCycles               767314                       # Number of cycles decode is unblocking
system.cpu0.dtb.accesses                            0                       # DTB accesses
system.cpu0.dtb.hits                                0                       # DTB hits
system.cpu0.dtb.misses                              0                       # DTB misses
system.cpu0.dtb.read_accesses                       0                       # DTB read accesses
system.cpu0.dtb.read_hits                           0                       # DTB read hits
system.cpu0.dtb.read_misses                         0                       # DTB read misses
system.cpu0.dtb.write_accesses                      0                       # DTB write accesses
system.cpu0.dtb.write_hits                          0                       # DTB write hits
system.cpu0.dtb.write_misses                        0                       # DTB write misses
system.cpu0.fetch.Branches                   14649893                       # Number of branches that fetch encountered
system.cpu0.fetch.CacheLines                 10531481                       # Number of cache lines fetched
system.cpu0.fetch.Cycles                     61193507                       # Number of cycles fetch has run and was not squashing or blocked
system.cpu0.fetch.IcacheSquashes               102573                       # Number of outstanding Icache misses that were squashed
system.cpu0.fetch.IcacheWaitRetryStallCycles          154                       # Number of stall cycles due to full MSHR
system.cpu0.fetch.Insts                      84775293                       # Number of instructions fetch has processed
system.cpu0.fetch.MiscStallCycles                  84                       # Number of cycles fetch has spent waiting on interrupts, or bad addresses, or out of MSHRs
system.cpu0.fetch.PendingTrapStallCycles           59                       # Number of stall cycles due to pending traps
system.cpu0.fetch.SquashCycles                5618456                       # Number of cycles fetch has spent squashing
system.cpu0.fetch.branchRate                 0.190397                       # Number of branch fetches per cycle
system.cpu0.fetch.icacheStallCycles          12461982                       # Number of cycles fetch is stalled on an Icache miss
system.cpu0.fetch.predictedBranches          11537043                       # Number of branches that fetch has predicted taken
system.cpu0.fetch.rate                       1.101782                       # Number of inst fetches per cycle
system.cpu0.fetch.rateDist::samples          76465014                       # Number of instructions fetched each cycle (Total)
system.cpu0.fetch.rateDist::mean             1.109544                       # Number of instructions fetched each cycle (Total)
system.cpu0.fetch.rateDist::stdev            1.315863                       # Number of instructions fetched each cycle (Total)
system.cpu0.fetch.rateDist::underflows              0      0.00%      0.00% # Number of instructions fetched each cycle (Total)
system.cpu0.fetch.rateDist::0                29055998     38.00%     38.00% # Number of instructions fetched each cycle (Total)
system.cpu0.fetch.rateDist::1                28039660     36.67%     74.67% # Number of instructions fetched each cycle (Total)
system.cpu0.fetch.rateDist::2                10420646     13.63%     88.30% # Number of instructions fetched each cycle (Total)
system.cpu0.fetch.rateDist::3                 4423803      5.79%     94.08% # Number of instructions fetched each cycle (Total)
system.cpu0.fetch.rateDist::4                 1573941      2.06%     96.14% # Number of instructions fetched each cycle (Total)
system.cpu0.fetch.rateDist::5                 1319039      1.73%     97.87% # Number of instructions fetched each cycle (Total)
system.cpu0.fetch.rateDist::6                 1628261      2.13%    100.00% # Number of instructions fetched each cycle (Total)
system.cpu0.fetch.rateDist::7                     896      0.00%    100.00% # Number of instructions fetched each cycle (Total)
system.cpu0.fetch.rateDist::8                    2770      0.00%    100.00% # Number of instructions fetched each cycle (Total)
system.cpu0.fetch.rateDist::overflows               0      0.00%    100.00% # Number of instructions fetched each cycle (Total)
system.cpu0.fetch.rateDist::min_value               0                       # Number of instructions fetched each cycle (Total)
system.cpu0.fetch.rateDist::max_value               8                       # Number of instructions fetched each cycle (Total)
system.cpu0.fetch.rateDist::total            76465014                       # Number of instructions fetched each cycle (Total)
system.cpu0.fp_regfile_reads                 10639326                       # number of floating regfile reads
system.cpu0.fp_regfile_writes                 3284919                       # number of floating regfile writes
system.cpu0.idleCycles                         478761                       # Total number of cycles that the CPU has spent unscheduled due to idling
system.cpu0.iew.branchMispredicts             1623462                       # Number of branch mispredicts detected at execute
system.cpu0.iew.exec_branches                10593444                       # Number of branches executed
system.cpu0.iew.exec_nop                            0                       # number of nop insts executed
system.cpu0.iew.exec_rate                    0.858155                       # Inst execution rate
system.cpu0.iew.exec_refs                    10015858                       # number of memory reference insts executed
system.cpu0.iew.exec_stores                   2649980                       # Number of stores executed
system.cpu0.iew.exec_swp                            0                       # number of swp insts executed
system.cpu0.iew.iewBlockCycles               14161628                       # Number of cycles IEW is blocking
system.cpu0.iew.iewDispLoadInsts              7510869                       # Number of dispatched load instructions
system.cpu0.iew.iewDispNonSpecInsts             66481                       # Number of dispatched non-speculative instructions
system.cpu0.iew.iewDispSquashedInsts           448759                       # Number of squashed instructions skipped by dispatch
system.cpu0.iew.iewDispStoreInsts             3122524                       # Number of dispatched store instructions
system.cpu0.iew.iewDispatchedInsts           69855936                       # Number of instructions dispatched to IQ
system.cpu0.iew.iewExecLoadInsts              7365878                       # Number of load instructions executed
system.cpu0.iew.iewExecSquashedInsts          1508613                       # Number of squashed instructions skipped in execute
system.cpu0.iew.iewExecutedInsts             66029651                       # Number of executed instructions
system.cpu0.iew.iewIQFullEvents                 37996                       # Number of times the IQ has become full, causing a stall
system.cpu0.iew.iewIdleCycles                       0                       # Number of cycles IEW is idle
system.cpu0.iew.iewLSQFullEvents                49206                       # Number of times the LSQ has become full, causing a stall
system.cpu0.iew.iewSquashCycles               1507277                       # Number of cycles IEW is squashing
system.cpu0.iew.iewUnblockCycles               198593                       # Number of cycles IEW is unblocking
system.cpu0.iew.lsq.thread0.blockedLoads            0                       # Number of blocked loads due to partial load-store forwarding
system.cpu0.iew.lsq.thread0.cacheBlocked         4793                       # Number of times an access to memory failed due to the cache being blocked
system.cpu0.iew.lsq.thread0.forwLoads          149785                       # Number of loads that had data forwarded from stores
system.cpu0.iew.lsq.thread0.ignoredResponses         1539                       # Number of memory responses ignored because the instruction is squashed
system.cpu0.iew.lsq.thread0.invAddrLoads            0                       # Number of loads ignored due to an invalid address
system.cpu0.iew.lsq.thread0.invAddrSwpfs            0                       # Number of software prefetches ignored due to an invalid address
system.cpu0.iew.lsq.thread0.memOrderViolation          286                       # Number of memory ordering violations
system.cpu0.iew.lsq.thread0.rescheduledLoads           75                       # Number of loads that were rescheduled
system.cpu0.iew.lsq.thread0.squashedLoads      2372977                       # Number of loads squashed
system.cpu0.iew.lsq.thread0.squashedStores       989817                       # Number of stores squashed
system.cpu0.iew.memOrderViolationEvents           286                       # Number of memory order violations
system.cpu0.iew.predictedNotTakenIncorrect        72468                       # Number of branches that were predicted not taken incorrectly
system.cpu0.iew.predictedTakenIncorrect       1550994                       # Number of branches that were predicted taken incorrectly
system.cpu0.iew.wb_consumers                 50458653                       # num instructions consuming a value
system.cpu0.iew.wb_count                     65442898                       # cumulative count of insts written-back
system.cpu0.iew.wb_fanout                    0.824759                       # average fanout of values written-back
system.cpu0.iew.wb_producers                 41616249                       # num instructions producing a value
system.cpu0.iew.wb_rate                      0.850529                       # insts written-back per cycle
system.cpu0.iew.wb_sent                      65489103                       # cumulative count of insts sent to commit
system.cpu0.int_regfile_reads                76320689                       # number of integer regfile reads
system.cpu0.int_regfile_writes               49837560                       # number of integer regfile writes
system.cpu0.ipc                              0.686808                       # IPC: Instructions Per Cycle
system.cpu0.ipc_total                        0.686808                       # IPC: Total IPC of All Threads
system.cpu0.iq.FU_type_0::No_OpClass           131822      0.20%      0.20% # Type of FU issued
system.cpu0.iq.FU_type_0::IntAlu             50945829     75.43%     75.63% # Type of FU issued
system.cpu0.iq.FU_type_0::IntMult                6163      0.01%     75.64% # Type of FU issued
system.cpu0.iq.FU_type_0::IntDiv                 8248      0.01%     75.65% # Type of FU issued
system.cpu0.iq.FU_type_0::FloatAdd            1579811      2.34%     77.99% # Type of FU issued
system.cpu0.iq.FU_type_0::FloatCmp            2958687      4.38%     82.37% # Type of FU issued
system.cpu0.iq.FU_type_0::FloatCvt             944423      1.40%     83.77% # Type of FU issued
system.cpu0.iq.FU_type_0::FloatMult            787022      1.17%     84.93% # Type of FU issued
system.cpu0.iq.FU_type_0::FloatMultAcc              0      0.00%     84.93% # Type of FU issued
system.cpu0.iq.FU_type_0::FloatDiv                  2      0.00%     84.93% # Type of FU issued
system.cpu0.iq.FU_type_0::FloatMisc                 6      0.00%     84.93% # Type of FU issued
system.cpu0.iq.FU_type_0::FloatSqrt                 0      0.00%     84.93% # Type of FU issued
system.cpu0.iq.FU_type_0::SimdAdd                   0      0.00%     84.93% # Type of FU issued
system.cpu0.iq.FU_type_0::SimdAddAcc                0      0.00%     84.93% # Type of FU issued
system.cpu0.iq.FU_type_0::SimdAlu                   0      0.00%     84.93% # Type of FU issued
system.cpu0.iq.FU_type_0::SimdCmp                   0      0.00%     84.93% # Type of FU issued
system.cpu0.iq.FU_type_0::SimdCvt                   0      0.00%     84.93% # Type of FU issued
system.cpu0.iq.FU_type_0::SimdMisc                  0      0.00%     84.93% # Type of FU issued
system.cpu0.iq.FU_type_0::SimdMult                  0      0.00%     84.93% # Type of FU issued
system.cpu0.iq.FU_type_0::SimdMultAcc               0      0.00%     84.93% # Type of FU issued
system.cpu0.iq.FU_type_0::SimdShift                 0      0.00%     84.93% # Type of FU issued
system.cpu0.iq.FU_type_0::SimdShiftAcc              0      0.00%     84.93% # Type of FU issued
system.cpu0.iq.FU_type_0::SimdDiv                   0      0.00%     84.93% # Type of FU issued
system.cpu0.iq.FU_type_0::SimdSqrt                  0      0.00%     84.93% # Type of FU issued
system.cpu0.iq.FU_type_0::SimdFloatAdd              0      0.00%     84.93% # Type of FU issued
system.cpu0.iq.FU_type_0::SimdFloatAlu              0      0.00%     84.93% # Type of FU issued
system.cpu0.iq.FU_type_0::SimdFloatCmp              0      0.00%     84.93% # Type of FU issued
system.cpu0.iq.FU_type_0::SimdFloatCvt              0      0.00%     84.93% # Type of FU issued
system.cpu0.iq.FU_type_0::SimdFloatDiv              0      0.00%     84.93% # Type of FU issued
system.cpu0.iq.FU_type_0::SimdFloatMisc             0      0.00%     84.93% # Type of FU issued
system.cpu0.iq.FU_type_0::SimdFloatMult             0      0.00%     84.93% # Type of FU issued
system.cpu0.iq.FU_type_0::SimdFloatMultAcc            0      0.00%     84.93% # Type of FU issued
system.cpu0.iq.FU_type_0::SimdFloatSqrt             0      0.00%     84.93% # Type of FU issued
system.cpu0.iq.FU_type_0::SimdReduceAdd             0      0.00%     84.93% # Type of FU issued
system.cpu0.iq.FU_type_0::SimdReduceAlu             0      0.00%     84.93% # Type of FU issued
system.cpu0.iq.FU_type_0::SimdReduceCmp             0      0.00%     84.93% # Type of FU issued
system.cpu0.iq.FU_type_0::SimdFloatReduceAdd            0      0.00%     84.93% # Type of FU issued
system.cpu0.iq.FU_type_0::SimdFloatReduceCmp            0      0.00%     84.93% # Type of FU issued
system.cpu0.iq.FU_type_0::SimdAes                   0      0.00%     84.93% # Type of FU issued
system.cpu0.iq.FU_type_0::SimdAesMix                0      0.00%     84.93% # Type of FU issued
system.cpu0.iq.FU_type_0::SimdSha1Hash              0      0.00%     84.93% # Type of FU issued
system.cpu0.iq.FU_type_0::SimdSha1Hash2             0      0.00%     84.93% # Type of FU issued
system.cpu0.iq.FU_type_0::SimdSha256Hash            0      0.00%     84.93% # Type of FU issued
system.cpu0.iq.FU_type_0::SimdSha256Hash2            0      0.00%     84.93% # Type of FU issued
system.cpu0.iq.FU_type_0::SimdShaSigma2             0      0.00%     84.93% # Type of FU issued
system.cpu0.iq.FU_type_0::SimdShaSigma3             0      0.00%     84.93% # Type of FU issued
system.cpu0.iq.FU_type_0::SimdPredAlu               0      0.00%     84.93% # Type of FU issued
system.cpu0.iq.FU_type_0::MemRead             7455506     11.04%     95.97% # Type of FU issued
system.cpu0.iq.FU_type_0::MemWrite            2655135      3.93%     99.90% # Type of FU issued
system.cpu0.iq.FU_type_0::FloatMemRead          65582      0.10%    100.00% # Type of FU issued
system.cpu0.iq.FU_type_0::FloatMemWrite            29      0.00%    100.00% # Type of FU issued
system.cpu0.iq.FU_type_0::IprAccess                 0      0.00%    100.00% # Type of FU issued
system.cpu0.iq.FU_type_0::InstPrefetch              0      0.00%    100.00% # Type of FU issued
system.cpu0.iq.FU_type_0::total              67538265                       # Type of FU issued
system.cpu0.iq.fp_alu_accesses                6335574                       # Number of floating point alu accesses
system.cpu0.iq.fp_inst_queue_reads           12671136                       # Number of floating instruction queue reads
system.cpu0.iq.fp_inst_queue_wakeup_accesses      6243640                       # Number of floating instruction queue wakeup accesses
system.cpu0.iq.fp_inst_queue_writes           7076943                       # Number of floating instruction queue writes
system.cpu0.iq.fu_busy_cnt                     219186                       # FU busy when requested
system.cpu0.iq.fu_busy_rate                  0.003245                       # FU busy rate (busy events/executed inst)
system.cpu0.iq.fu_full::No_OpClass                  0      0.00%      0.00% # attempts to use FU when none available
system.cpu0.iq.fu_full::IntAlu                 167478     76.41%     76.41% # attempts to use FU when none available
system.cpu0.iq.fu_full::IntMult                 20041      9.14%     85.55% # attempts to use FU when none available
system.cpu0.iq.fu_full::IntDiv                   9199      4.20%     89.75% # attempts to use FU when none available
system.cpu0.iq.fu_full::FloatAdd                    0      0.00%     89.75% # attempts to use FU when none available
system.cpu0.iq.fu_full::FloatCmp                    0      0.00%     89.75% # attempts to use FU when none available
system.cpu0.iq.fu_full::FloatCvt                    6      0.00%     89.75% # attempts to use FU when none available
system.cpu0.iq.fu_full::FloatMult                   0      0.00%     89.75% # attempts to use FU when none available
system.cpu0.iq.fu_full::FloatMultAcc                0      0.00%     89.75% # attempts to use FU when none available
system.cpu0.iq.fu_full::FloatDiv                    0      0.00%     89.75% # attempts to use FU when none available
system.cpu0.iq.fu_full::FloatMisc                   0      0.00%     89.75% # attempts to use FU when none available
system.cpu0.iq.fu_full::FloatSqrt                   0      0.00%     89.75% # attempts to use FU when none available
system.cpu0.iq.fu_full::SimdAdd                     0      0.00%     89.75% # attempts to use FU when none available
system.cpu0.iq.fu_full::SimdAddAcc                  0      0.00%     89.75% # attempts to use FU when none available
system.cpu0.iq.fu_full::SimdAlu                     0      0.00%     89.75% # attempts to use FU when none available
system.cpu0.iq.fu_full::SimdCmp                     0      0.00%     89.75% # attempts to use FU when none available
system.cpu0.iq.fu_full::SimdCvt                     0      0.00%     89.75% # attempts to use FU when none available
system.cpu0.iq.fu_full::SimdMisc                    0      0.00%     89.75% # attempts to use FU when none available
system.cpu0.iq.fu_full::SimdMult                    0      0.00%     89.75% # attempts to use FU when none available
system.cpu0.iq.fu_full::SimdMultAcc                 0      0.00%     89.75% # attempts to use FU when none available
system.cpu0.iq.fu_full::SimdShift                   0      0.00%     89.75% # attempts to use FU when none available
system.cpu0.iq.fu_full::SimdShiftAcc                0      0.00%     89.75% # attempts to use FU when none available
system.cpu0.iq.fu_full::SimdDiv                     0      0.00%     89.75% # attempts to use FU when none available
system.cpu0.iq.fu_full::SimdSqrt                    0      0.00%     89.75% # attempts to use FU when none available
system.cpu0.iq.fu_full::SimdFloatAdd                0      0.00%     89.75% # attempts to use FU when none available
system.cpu0.iq.fu_full::SimdFloatAlu                0      0.00%     89.75% # attempts to use FU when none available
system.cpu0.iq.fu_full::SimdFloatCmp                0      0.00%     89.75% # attempts to use FU when none available
system.cpu0.iq.fu_full::SimdFloatCvt                0      0.00%     89.75% # attempts to use FU when none available
system.cpu0.iq.fu_full::SimdFloatDiv                0      0.00%     89.75% # attempts to use FU when none available
system.cpu0.iq.fu_full::SimdFloatMisc               0      0.00%     89.75% # attempts to use FU when none available
system.cpu0.iq.fu_full::SimdFloatMult               0      0.00%     89.75% # attempts to use FU when none available
system.cpu0.iq.fu_full::SimdFloatMultAcc            0      0.00%     89.75% # attempts to use FU when none available
system.cpu0.iq.fu_full::SimdFloatSqrt               0      0.00%     89.75% # attempts to use FU when none available
system.cpu0.iq.fu_full::SimdReduceAdd               0      0.00%     89.75% # attempts to use FU when none available
system.cpu0.iq.fu_full::SimdReduceAlu               0      0.00%     89.75% # attempts to use FU when none available
system.cpu0.iq.fu_full::SimdReduceCmp               0      0.00%     89.75% # attempts to use FU when none available
system.cpu0.iq.fu_full::SimdFloatReduceAdd            0      0.00%     89.75% # attempts to use FU when none available
system.cpu0.iq.fu_full::SimdFloatReduceCmp            0      0.00%     89.75% # attempts to use FU when none available
system.cpu0.iq.fu_full::SimdAes                     0      0.00%     89.75% # attempts to use FU when none available
system.cpu0.iq.fu_full::SimdAesMix                  0      0.00%     89.75% # attempts to use FU when none available
system.cpu0.iq.fu_full::SimdSha1Hash                0      0.00%     89.75% # attempts to use FU when none available
system.cpu0.iq.fu_full::SimdSha1Hash2               0      0.00%     89.75% # attempts to use FU when none available
system.cpu0.iq.fu_full::SimdSha256Hash              0      0.00%     89.75% # attempts to use FU when none available
system.cpu0.iq.fu_full::SimdSha256Hash2             0      0.00%     89.75% # attempts to use FU when none available
system.cpu0.iq.fu_full::SimdShaSigma2               0      0.00%     89.75% # attempts to use FU when none available
system.cpu0.iq.fu_full::SimdShaSigma3               0      0.00%     89.75% # attempts to use FU when none available
system.cpu0.iq.fu_full::SimdPredAlu                 0      0.00%     89.75% # attempts to use FU when none available
system.cpu0.iq.fu_full::MemRead                 20733      9.46%     99.21% # attempts to use FU when none available
system.cpu0.iq.fu_full::MemWrite                 1723      0.79%    100.00% # attempts to use FU when none available
system.cpu0.iq.fu_full::FloatMemRead                2      0.00%    100.00% # attempts to use FU when none available
system.cpu0.iq.fu_full::FloatMemWrite               4      0.00%    100.00% # attempts to use FU when none available
system.cpu0.iq.fu_full::IprAccess                   0      0.00%    100.00% # attempts to use FU when none available
system.cpu0.iq.fu_full::InstPrefetch                0      0.00%    100.00% # attempts to use FU when none available
system.cpu0.iq.int_alu_accesses              61290055                       # Number of integer alu accesses
system.cpu0.iq.int_inst_queue_reads         199163794                       # Number of integer instruction queue reads
system.cpu0.iq.int_inst_queue_wakeup_accesses     59199258                       # Number of integer instruction queue wakeup accesses
system.cpu0.iq.int_inst_queue_writes         79723747                       # Number of integer instruction queue writes
system.cpu0.iq.iqInstsAdded                  69657648                       # Number of instructions added to the IQ (excludes non-spec)
system.cpu0.iq.iqInstsIssued                 67538265                       # Number of instructions issued
system.cpu0.iq.iqNonSpecInstsAdded             198288                       # Number of non-speculative instructions added to the IQ
system.cpu0.iq.iqSquashedInstsExamined       16944570                       # Number of squashed instructions iterated over during squash; mainly for profiling
system.cpu0.iq.iqSquashedInstsIssued            74201                       # Number of squashed instructions issued
system.cpu0.iq.iqSquashedNonSpecRemoved           342                       # Number of squashed non-spec instructions that were removed
system.cpu0.iq.iqSquashedOperandsExamined      4485209                       # Number of squashed operands that are examined and possibly removed from graph
system.cpu0.iq.issued_per_cycle::samples     76465014                       # Number of insts issued each cycle
system.cpu0.iq.issued_per_cycle::mean        0.883257                       # Number of insts issued each cycle
system.cpu0.iq.issued_per_cycle::stdev       1.143504                       # Number of insts issued each cycle
system.cpu0.iq.issued_per_cycle::underflows            0      0.00%      0.00% # Number of insts issued each cycle
system.cpu0.iq.issued_per_cycle::0           36565821     47.82%     47.82% # Number of insts issued each cycle
system.cpu0.iq.issued_per_cycle::1           22677824     29.66%     77.48% # Number of insts issued each cycle
system.cpu0.iq.issued_per_cycle::2           11909026     15.57%     93.05% # Number of insts issued each cycle
system.cpu0.iq.issued_per_cycle::3            2303176      3.01%     96.06% # Number of insts issued each cycle
system.cpu0.iq.issued_per_cycle::4            1445871      1.89%     97.96% # Number of insts issued each cycle
system.cpu0.iq.issued_per_cycle::5            1241483      1.62%     99.58% # Number of insts issued each cycle
system.cpu0.iq.issued_per_cycle::6             158973      0.21%     99.79% # Number of insts issued each cycle
system.cpu0.iq.issued_per_cycle::7             114596      0.15%     99.94% # Number of insts issued each cycle
system.cpu0.iq.issued_per_cycle::8              48244      0.06%    100.00% # Number of insts issued each cycle
system.cpu0.iq.issued_per_cycle::overflows            0      0.00%    100.00% # Number of insts issued each cycle
system.cpu0.iq.issued_per_cycle::min_value            0                       # Number of insts issued each cycle
system.cpu0.iq.issued_per_cycle::max_value            8                       # Number of insts issued each cycle
system.cpu0.iq.issued_per_cycle::total       76465014                       # Number of insts issued each cycle
system.cpu0.iq.rate                          0.877761                       # Inst issue rate
system.cpu0.iq.vec_alu_accesses                     0                       # Number of vector alu accesses
system.cpu0.iq.vec_inst_queue_reads                 0                       # Number of vector instruction queue reads
system.cpu0.iq.vec_inst_queue_wakeup_accesses            0                       # Number of vector instruction queue wakeup accesses
system.cpu0.iq.vec_inst_queue_writes                0                       # Number of vector instruction queue writes
system.cpu0.itb.accesses                            0                       # DTB accesses
system.cpu0.itb.hits                                0                       # DTB hits
system.cpu0.itb.misses                              0                       # DTB misses
system.cpu0.itb.read_accesses                       0                       # DTB read accesses
system.cpu0.itb.read_hits                           0                       # DTB read hits
system.cpu0.itb.read_misses                         0                       # DTB read misses
system.cpu0.itb.write_accesses                      0                       # DTB write accesses
system.cpu0.itb.write_hits                          0                       # DTB write hits
system.cpu0.itb.write_misses                        0                       # DTB write misses
system.cpu0.memDep0.conflictingLoads           496711                       # Number of conflicting loads.
system.cpu0.memDep0.conflictingStores          154477                       # Number of conflicting stores.
system.cpu0.memDep0.insertedLoads             7510869                       # Number of loads inserted to the mem dependence unit.
system.cpu0.memDep0.insertedStores            3122524                       # Number of stores inserted to the mem dependence unit.
system.cpu0.misc_regfile_reads                9331996                       # number of misc regfile reads
system.cpu0.misc_regfile_writes               5570590                       # number of misc regfile writes
system.cpu0.numCycles                        76943775                       # number of cpu cycles simulated
system.cpu0.numWorkItemsCompleted                   0                       # number of work items this cpu completed
system.cpu0.numWorkItemsStarted                     0                       # number of work items this cpu started
system.cpu0.quiesceCycles                     1181057                       # Total number of cycles that CPU has spent quiesced or waiting for an interrupt
system.cpu0.rename.BlockCycles               14967768                       # Number of cycles rename is blocking
system.cpu0.rename.CommittedMaps             43411120                       # Number of HB maps that are committed
system.cpu0.rename.IQFullEvents                516914                       # Number of times rename has blocked due to IQ full
system.cpu0.rename.IdleCycles                17833103                       # Number of cycles rename is idle
system.cpu0.rename.LQFullEvents                 29189                       # Number of times rename has blocked due to LQ full
system.cpu0.rename.ROBFullEvents                 1768                       # Number of times rename has blocked due to ROB full
system.cpu0.rename.RenameLookups             96535658                       # Number of register rename lookups that rename has made
system.cpu0.rename.RenamedInsts              73464851                       # Number of instructions processed by rename
system.cpu0.rename.RenamedOperands           59281300                       # Number of destination operands rename has renamed
system.cpu0.rename.RunCycles                 41324693                       # Number of cycles rename is running
system.cpu0.rename.SQFullEvents                118282                       # Number of times rename has blocked due to SQ full
system.cpu0.rename.SquashCycles               1507277                       # Number of cycles rename is squashing
system.cpu0.rename.UnblockCycles               811223                       # Number of cycles rename is unblocking
system.cpu0.rename.UndoneMaps                15870175                       # Number of HB maps that are undone due to squashing
system.cpu0.rename.fp_rename_lookups         11224114                       # Number of floating rename lookups
system.cpu0.rename.int_rename_lookups        85311544                       # Number of integer rename lookups
system.cpu0.rename.serializeStallCycles         20950                       # count of cycles rename stalled for serializing inst
system.cpu0.rename.serializingInsts               539                       # count of serializing insts renamed
system.cpu0.rename.skidInsts                  1207122                       # count of insts added to the skid buffer
system.cpu0.rename.tempSerializingInsts           537                       # count of temporary serializing insts renamed
system.cpu0.rob.rob_reads                   143398766                       # The number of ROB reads
system.cpu0.rob.rob_writes                  142335920                       # The number of ROB writes
system.cpu0.timesIdled                           9695                       # Number of times that the entire CPU went into an idle state and unscheduled itself
system.cpu0.workload.numSyscalls                  133                       # Number of system calls
system.cpu1.branchPred.BTBCorrect                   0                       # Number of correct BTB predictions (this stat may not work properly.
system.cpu1.branchPred.BTBHitPct            94.895406                       # BTB Hit Percentage
system.cpu1.branchPred.BTBHits                 989612                       # Number of BTB hits
system.cpu1.branchPred.BTBLookups             1042845                       # Number of BTB lookups
system.cpu1.branchPred.RASInCorrect                 0                       # Number of incorrect RAS predictions.
system.cpu1.branchPred.condIncorrect           183666                       # Number of conditional branches incorrect
system.cpu1.branchPred.condPredicted          1295812                       # Number of conditional branches predicted
system.cpu1.branchPred.indirectHits             10892                       # Number of indirect target hits.
system.cpu1.branchPred.indirectLookups          14768                       # Number of indirect predictor lookups.
system.cpu1.branchPred.indirectMisses            3876                       # Number of indirect misses.
system.cpu1.branchPred.lookups                1590599                       # Number of BP lookups
system.cpu1.branchPred.usedRAS                      0                       # Number of times the RAS was used to get a target.
system.cpu1.branchPredindirectMispredicted         1871                       # Number of mispredicted indirect branches.
system.cpu1.commit.amos                         65653                       # Number of atomic instructions committed
system.cpu1.commit.branchMispredicts           175631                       # The number of times a branch was mispredicted
system.cpu1.commit.branches                    927209                       # Number of branches committed
system.cpu1.commit.bw_lim_events                21962                       # number cycles where commit BW limit reached
system.cpu1.commit.commitNonSpecStalls         197215                       # The number of times commit has been forced to stall to communicate backwards
system.cpu1.commit.commitSquashedInsts        1423353                       # The number of squashed insts skipped by commit
system.cpu1.commit.committedInsts             3802285                       # Number of instructions committed
system.cpu1.commit.committedOps               3868002                       # Number of ops (including micro ops) committed
system.cpu1.commit.committed_per_cycle::samples     18885068                       # Number of insts commited each cycle
system.cpu1.commit.committed_per_cycle::mean     0.204818                       # Number of insts commited each cycle
system.cpu1.commit.committed_per_cycle::stdev     0.718045                       # Number of insts commited each cycle
system.cpu1.commit.committed_per_cycle::underflows            0      0.00%      0.00% # Number of insts commited each cycle
system.cpu1.commit.committed_per_cycle::0     16858754     89.27%     89.27% # Number of insts commited each cycle
system.cpu1.commit.committed_per_cycle::1      1068792      5.66%     94.93% # Number of insts commited each cycle
system.cpu1.commit.committed_per_cycle::2       392832      2.08%     97.01% # Number of insts commited each cycle
system.cpu1.commit.committed_per_cycle::3       383387      2.03%     99.04% # Number of insts commited each cycle
system.cpu1.commit.committed_per_cycle::4       121258      0.64%     99.68% # Number of insts commited each cycle
system.cpu1.commit.committed_per_cycle::5        28898      0.15%     99.84% # Number of insts commited each cycle
system.cpu1.commit.committed_per_cycle::6         6128      0.03%     99.87% # Number of insts commited each cycle
system.cpu1.commit.committed_per_cycle::7         3057      0.02%     99.88% # Number of insts commited each cycle
system.cpu1.commit.committed_per_cycle::8        21962      0.12%    100.00% # Number of insts commited each cycle
system.cpu1.commit.committed_per_cycle::overflows            0      0.00%    100.00% # Number of insts commited each cycle
system.cpu1.commit.committed_per_cycle::min_value            0                       # Number of insts commited each cycle
system.cpu1.commit.committed_per_cycle::max_value            8                       # Number of insts commited each cycle
system.cpu1.commit.committed_per_cycle::total     18885068                       # Number of insts commited each cycle
system.cpu1.commit.fp_insts                        24                       # Number of committed floating point instructions.
system.cpu1.commit.function_calls               17150                       # Number of function calls committed.
system.cpu1.commit.int_insts                  3587815                       # Number of committed integer instructions.
system.cpu1.commit.loads                       986117                       # Number of loads committed
system.cpu1.commit.membars                     131325                       # Number of memory barriers committed
system.cpu1.commit.op_class_0::No_OpClass       131325      3.40%      3.40% # Class of committed instruction
system.cpu1.commit.op_class_0::IntAlu         2330606     60.25%     63.65% # Class of committed instruction
system.cpu1.commit.op_class_0::IntMult            638      0.02%     63.67% # Class of committed instruction
system.cpu1.commit.op_class_0::IntDiv              30      0.00%     63.67% # Class of committed instruction
system.cpu1.commit.op_class_0::FloatAdd             0      0.00%     63.67% # Class of committed instruction
system.cpu1.commit.op_class_0::FloatCmp             0      0.00%     63.67% # Class of committed instruction
system.cpu1.commit.op_class_0::FloatCvt             0      0.00%     63.67% # Class of committed instruction
system.cpu1.commit.op_class_0::FloatMult            0      0.00%     63.67% # Class of committed instruction
system.cpu1.commit.op_class_0::FloatMultAcc            0      0.00%     63.67% # Class of committed instruction
system.cpu1.commit.op_class_0::FloatDiv             0      0.00%     63.67% # Class of committed instruction
system.cpu1.commit.op_class_0::FloatMisc            0      0.00%     63.67% # Class of committed instruction
system.cpu1.commit.op_class_0::FloatSqrt            0      0.00%     63.67% # Class of committed instruction
system.cpu1.commit.op_class_0::SimdAdd              0      0.00%     63.67% # Class of committed instruction
system.cpu1.commit.op_class_0::SimdAddAcc            0      0.00%     63.67% # Class of committed instruction
system.cpu1.commit.op_class_0::SimdAlu              0      0.00%     63.67% # Class of committed instruction
system.cpu1.commit.op_class_0::SimdCmp              0      0.00%     63.67% # Class of committed instruction
system.cpu1.commit.op_class_0::SimdCvt              0      0.00%     63.67% # Class of committed instruction
system.cpu1.commit.op_class_0::SimdMisc             0      0.00%     63.67% # Class of committed instruction
system.cpu1.commit.op_class_0::SimdMult             0      0.00%     63.67% # Class of committed instruction
system.cpu1.commit.op_class_0::SimdMultAcc            0      0.00%     63.67% # Class of committed instruction
system.cpu1.commit.op_class_0::SimdShift            0      0.00%     63.67% # Class of committed instruction
system.cpu1.commit.op_class_0::SimdShiftAcc            0      0.00%     63.67% # Class of committed instruction
system.cpu1.commit.op_class_0::SimdDiv              0      0.00%     63.67% # Class of committed instruction
system.cpu1.commit.op_class_0::SimdSqrt             0      0.00%     63.67% # Class of committed instruction
system.cpu1.commit.op_class_0::SimdFloatAdd            0      0.00%     63.67% # Class of committed instruction
system.cpu1.commit.op_class_0::SimdFloatAlu            0      0.00%     63.67% # Class of committed instruction
system.cpu1.commit.op_class_0::SimdFloatCmp            0      0.00%     63.67% # Class of committed instruction
system.cpu1.commit.op_class_0::SimdFloatCvt            0      0.00%     63.67% # Class of committed instruction
system.cpu1.commit.op_class_0::SimdFloatDiv            0      0.00%     63.67% # Class of committed instruction
system.cpu1.commit.op_class_0::SimdFloatMisc            0      0.00%     63.67% # Class of committed instruction
system.cpu1.commit.op_class_0::SimdFloatMult            0      0.00%     63.67% # Class of committed instruction
system.cpu1.commit.op_class_0::SimdFloatMultAcc            0      0.00%     63.67% # Class of committed instruction
system.cpu1.commit.op_class_0::SimdFloatSqrt            0      0.00%     63.67% # Class of committed instruction
system.cpu1.commit.op_class_0::SimdReduceAdd            0      0.00%     63.67% # Class of committed instruction
system.cpu1.commit.op_class_0::SimdReduceAlu            0      0.00%     63.67% # Class of committed instruction
system.cpu1.commit.op_class_0::SimdReduceCmp            0      0.00%     63.67% # Class of committed instruction
system.cpu1.commit.op_class_0::SimdFloatReduceAdd            0      0.00%     63.67% # Class of committed instruction
system.cpu1.commit.op_class_0::SimdFloatReduceCmp            0      0.00%     63.67% # Class of committed instruction
system.cpu1.commit.op_class_0::SimdAes              0      0.00%     63.67% # Class of committed instruction
system.cpu1.commit.op_class_0::SimdAesMix            0      0.00%     63.67% # Class of committed instruction
system.cpu1.commit.op_class_0::SimdSha1Hash            0      0.00%     63.67% # Class of committed instruction
system.cpu1.commit.op_class_0::SimdSha1Hash2            0      0.00%     63.67% # Class of committed instruction
system.cpu1.commit.op_class_0::SimdSha256Hash            0      0.00%     63.67% # Class of committed instruction
system.cpu1.commit.op_class_0::SimdSha256Hash2            0      0.00%     63.67% # Class of committed instruction
system.cpu1.commit.op_class_0::SimdShaSigma2            0      0.00%     63.67% # Class of committed instruction
system.cpu1.commit.op_class_0::SimdShaSigma3            0      0.00%     63.67% # Class of committed instruction
system.cpu1.commit.op_class_0::SimdPredAlu            0      0.00%     63.67% # Class of committed instruction
system.cpu1.commit.op_class_0::MemRead        1051764     27.19%     90.86% # Class of committed instruction
system.cpu1.commit.op_class_0::MemWrite        353615      9.14%    100.00% # Class of committed instruction
system.cpu1.commit.op_class_0::FloatMemRead            6      0.00%    100.00% # Class of committed instruction
system.cpu1.commit.op_class_0::FloatMemWrite           18      0.00%    100.00% # Class of committed instruction
system.cpu1.commit.op_class_0::IprAccess            0      0.00%    100.00% # Class of committed instruction
system.cpu1.commit.op_class_0::InstPrefetch            0      0.00%    100.00% # Class of committed instruction
system.cpu1.commit.op_class_0::total          3868002                       # Class of committed instruction
system.cpu1.commit.refs                       1405403                       # Number of memory references committed
system.cpu1.commit.swp_count                        0                       # Number of s/w prefetches committed
system.cpu1.commit.vec_insts                        0                       # Number of committed Vector instructions.
system.cpu1.committedInsts                    3802285                       # Number of Instructions Simulated
system.cpu1.committedOps                      3868002                       # Number of Ops (including micro ops) Simulated
system.cpu1.cpi                              5.052951                       # CPI: Cycles Per Instruction
system.cpu1.cpi_total                        5.052951                       # CPI: Total CPI of All Threads
system.cpu1.decode.BlockedCycles             14585247                       # Number of cycles decode is blocked
system.cpu1.decode.BranchMispred                 8220                       # Number of times decode detected a branch misprediction
system.cpu1.decode.BranchResolved              916541                       # Number of times decode resolved a branch
system.cpu1.decode.DecodedInsts               5974477                       # Number of instructions handled by decode
system.cpu1.decode.IdleCycles                 1002402                       # Number of cycles decode is idle
system.cpu1.decode.RunCycles                  3199119                       # Number of cycles decode is running
system.cpu1.decode.SquashCycles                175820                       # Number of cycles decode is squashing
system.cpu1.decode.SquashedInsts                14599                       # Number of squashed instructions handled by decode
system.cpu1.decode.UnblockCycles               193673                       # Number of cycles decode is unblocking
system.cpu1.dtb.accesses                            0                       # DTB accesses
system.cpu1.dtb.hits                                0                       # DTB hits
system.cpu1.dtb.misses                              0                       # DTB misses
system.cpu1.dtb.read_accesses                       0                       # DTB read accesses
system.cpu1.dtb.read_hits                           0                       # DTB read hits
system.cpu1.dtb.read_misses                         0                       # DTB read misses
system.cpu1.dtb.write_accesses                      0                       # DTB write accesses
system.cpu1.dtb.write_hits                          0                       # DTB write hits
system.cpu1.dtb.write_misses                        0                       # DTB write misses
system.cpu1.fetch.Branches                    1590599                       # Number of branches that fetch encountered
system.cpu1.fetch.CacheLines                   768377                       # Number of cache lines fetched
system.cpu1.fetch.Cycles                     18096978                       # Number of cycles fetch has run and was not squashing or blocked
system.cpu1.fetch.IcacheSquashes                55139                       # Number of outstanding Icache misses that were squashed
system.cpu1.fetch.IcacheWaitRetryStallCycles           31                       # Number of stall cycles due to full MSHR
system.cpu1.fetch.Insts                       6244128                       # Number of instructions fetch has processed
system.cpu1.fetch.MiscStallCycles                   3                       # Number of cycles fetch has spent waiting on interrupts, or bad addresses, or out of MSHRs
system.cpu1.fetch.SquashCycles                 367710                       # Number of cycles fetch has spent squashing
system.cpu1.fetch.branchRate                 0.082789                       # Number of branch fetches per cycle
system.cpu1.fetch.icacheStallCycles            875394                       # Number of cycles fetch is stalled on an Icache miss
system.cpu1.fetch.predictedBranches           1000504                       # Number of branches that fetch has predicted taken
system.cpu1.fetch.rate                       0.324999                       # Number of inst fetches per cycle
system.cpu1.fetch.rateDist::samples          19156261                       # Number of instructions fetched each cycle (Total)
system.cpu1.fetch.rateDist::mean             0.329405                       # Number of instructions fetched each cycle (Total)
system.cpu1.fetch.rateDist::stdev            0.725950                       # Number of instructions fetched each cycle (Total)
system.cpu1.fetch.rateDist::underflows              0      0.00%      0.00% # Number of instructions fetched each cycle (Total)
system.cpu1.fetch.rateDist::0                14791958     77.22%     77.22% # Number of instructions fetched each cycle (Total)
system.cpu1.fetch.rateDist::1                 3075865     16.06%     93.27% # Number of instructions fetched each cycle (Total)
system.cpu1.fetch.rateDist::2                  857072      4.47%     97.75% # Number of instructions fetched each cycle (Total)
system.cpu1.fetch.rateDist::3                  283461      1.48%     99.23% # Number of instructions fetched each cycle (Total)
system.cpu1.fetch.rateDist::4                   88863      0.46%     99.69% # Number of instructions fetched each cycle (Total)
system.cpu1.fetch.rateDist::5                   43578      0.23%     99.92% # Number of instructions fetched each cycle (Total)
system.cpu1.fetch.rateDist::6                   13475      0.07%     99.99% # Number of instructions fetched each cycle (Total)
system.cpu1.fetch.rateDist::7                     330      0.00%     99.99% # Number of instructions fetched each cycle (Total)
system.cpu1.fetch.rateDist::8                    1659      0.01%    100.00% # Number of instructions fetched each cycle (Total)
system.cpu1.fetch.rateDist::overflows               0      0.00%    100.00% # Number of instructions fetched each cycle (Total)
system.cpu1.fetch.rateDist::min_value               0                       # Number of instructions fetched each cycle (Total)
system.cpu1.fetch.rateDist::max_value               8                       # Number of instructions fetched each cycle (Total)
system.cpu1.fetch.rateDist::total            19156261                       # Number of instructions fetched each cycle (Total)
system.cpu1.fp_regfile_reads                       18                       # number of floating regfile reads
system.cpu1.fp_regfile_writes                      12                       # number of floating regfile writes
system.cpu1.idleCycles                          56500                       # Total number of cycles that the CPU has spent unscheduled due to idling
system.cpu1.iew.branchMispredicts              182037                       # Number of branch mispredicts detected at execute
system.cpu1.iew.exec_branches                 1095779                       # Number of branches executed
system.cpu1.iew.exec_nop                            0                       # number of nop insts executed
system.cpu1.iew.exec_rate                    0.248205                       # Inst execution rate
system.cpu1.iew.exec_refs                     1684991                       # number of memory reference insts executed
system.cpu1.iew.exec_stores                    523768                       # Number of stores executed
system.cpu1.iew.exec_swp                            0                       # number of swp insts executed
system.cpu1.iew.iewBlockCycles               13175391                       # Number of cycles IEW is blocking
system.cpu1.iew.iewDispLoadInsts              1285265                       # Number of dispatched load instructions
system.cpu1.iew.iewDispNonSpecInsts             66055                       # Number of dispatched non-speculative instructions
system.cpu1.iew.iewDispSquashedInsts           167565                       # Number of squashed instructions skipped by dispatch
system.cpu1.iew.iewDispStoreInsts              608745                       # Number of dispatched store instructions
system.cpu1.iew.iewDispatchedInsts            5290954                       # Number of instructions dispatched to IQ
system.cpu1.iew.iewExecLoadInsts              1161223                       # Number of load instructions executed
system.cpu1.iew.iewExecSquashedInsts           221382                       # Number of squashed instructions skipped in execute
system.cpu1.iew.iewExecutedInsts              4768703                       # Number of executed instructions
system.cpu1.iew.iewIQFullEvents                 43502                       # Number of times the IQ has become full, causing a stall
system.cpu1.iew.iewIdleCycles                       0                       # Number of cycles IEW is idle
system.cpu1.iew.iewLSQFullEvents                46741                       # Number of times the LSQ has become full, causing a stall
system.cpu1.iew.iewSquashCycles                175820                       # Number of cycles IEW is squashing
system.cpu1.iew.iewUnblockCycles               199989                       # Number of cycles IEW is unblocking
system.cpu1.iew.lsq.thread0.blockedLoads            0                       # Number of blocked loads due to partial load-store forwarding
system.cpu1.iew.lsq.thread0.cacheBlocked         3116                       # Number of times an access to memory failed due to the cache being blocked
system.cpu1.iew.lsq.thread0.forwLoads           38520                       # Number of loads that had data forwarded from stores
system.cpu1.iew.lsq.thread0.ignoredResponses         1929                       # Number of memory responses ignored because the instruction is squashed
system.cpu1.iew.lsq.thread0.invAddrLoads            0                       # Number of loads ignored due to an invalid address
system.cpu1.iew.lsq.thread0.invAddrSwpfs            0                       # Number of software prefetches ignored due to an invalid address
system.cpu1.iew.lsq.thread0.memOrderViolation          317                       # Number of memory ordering violations
system.cpu1.iew.lsq.thread0.rescheduledLoads           86                       # Number of loads that were rescheduled
system.cpu1.iew.lsq.thread0.squashedLoads       299148                       # Number of loads squashed
system.cpu1.iew.lsq.thread0.squashedStores       189459                       # Number of stores squashed
system.cpu1.iew.memOrderViolationEvents           317                       # Number of memory order violations
system.cpu1.iew.predictedNotTakenIncorrect        86073                       # Number of branches that were predicted not taken incorrectly
system.cpu1.iew.predictedTakenIncorrect         95964                       # Number of branches that were predicted taken incorrectly
system.cpu1.iew.wb_consumers                  2186105                       # num instructions consuming a value
system.cpu1.iew.wb_count                      4666240                       # cumulative count of insts written-back
system.cpu1.iew.wb_fanout                    0.783953                       # average fanout of values written-back
system.cpu1.iew.wb_producers                  1713804                       # num instructions producing a value
system.cpu1.iew.wb_rate                      0.242872                       # insts written-back per cycle
system.cpu1.iew.wb_sent                       4671110                       # cumulative count of insts sent to commit
system.cpu1.int_regfile_reads                 6011000                       # number of integer regfile reads
system.cpu1.int_regfile_writes                2996394                       # number of integer regfile writes
system.cpu1.ipc                              0.197904                       # IPC: Instructions Per Cycle
system.cpu1.ipc_total                        0.197904                       # IPC: Total IPC of All Threads
system.cpu1.iq.FU_type_0::No_OpClass           131408      2.63%      2.63% # Type of FU issued
system.cpu1.iq.FU_type_0::IntAlu              3092897     61.98%     64.61% # Type of FU issued
system.cpu1.iq.FU_type_0::IntMult                 648      0.01%     64.63% # Type of FU issued
system.cpu1.iq.FU_type_0::IntDiv                   30      0.00%     64.63% # Type of FU issued
system.cpu1.iq.FU_type_0::FloatAdd                  0      0.00%     64.63% # Type of FU issued
system.cpu1.iq.FU_type_0::FloatCmp                  0      0.00%     64.63% # Type of FU issued
system.cpu1.iq.FU_type_0::FloatCvt                  0      0.00%     64.63% # Type of FU issued
system.cpu1.iq.FU_type_0::FloatMult                 0      0.00%     64.63% # Type of FU issued
system.cpu1.iq.FU_type_0::FloatMultAcc              0      0.00%     64.63% # Type of FU issued
system.cpu1.iq.FU_type_0::FloatDiv                  0      0.00%     64.63% # Type of FU issued
system.cpu1.iq.FU_type_0::FloatMisc                 0      0.00%     64.63% # Type of FU issued
system.cpu1.iq.FU_type_0::FloatSqrt                 0      0.00%     64.63% # Type of FU issued
system.cpu1.iq.FU_type_0::SimdAdd                   0      0.00%     64.63% # Type of FU issued
system.cpu1.iq.FU_type_0::SimdAddAcc                0      0.00%     64.63% # Type of FU issued
system.cpu1.iq.FU_type_0::SimdAlu                   0      0.00%     64.63% # Type of FU issued
system.cpu1.iq.FU_type_0::SimdCmp                   0      0.00%     64.63% # Type of FU issued
system.cpu1.iq.FU_type_0::SimdCvt                   0      0.00%     64.63% # Type of FU issued
system.cpu1.iq.FU_type_0::SimdMisc                  0      0.00%     64.63% # Type of FU issued
system.cpu1.iq.FU_type_0::SimdMult                  0      0.00%     64.63% # Type of FU issued
system.cpu1.iq.FU_type_0::SimdMultAcc               0      0.00%     64.63% # Type of FU issued
system.cpu1.iq.FU_type_0::SimdShift                 0      0.00%     64.63% # Type of FU issued
system.cpu1.iq.FU_type_0::SimdShiftAcc              0      0.00%     64.63% # Type of FU issued
system.cpu1.iq.FU_type_0::SimdDiv                   0      0.00%     64.63% # Type of FU issued
system.cpu1.iq.FU_type_0::SimdSqrt                  0      0.00%     64.63% # Type of FU issued
system.cpu1.iq.FU_type_0::SimdFloatAdd              0      0.00%     64.63% # Type of FU issued
system.cpu1.iq.FU_type_0::SimdFloatAlu              0      0.00%     64.63% # Type of FU issued
system.cpu1.iq.FU_type_0::SimdFloatCmp              0      0.00%     64.63% # Type of FU issued
system.cpu1.iq.FU_type_0::SimdFloatCvt              0      0.00%     64.63% # Type of FU issued
system.cpu1.iq.FU_type_0::SimdFloatDiv              0      0.00%     64.63% # Type of FU issued
system.cpu1.iq.FU_type_0::SimdFloatMisc             0      0.00%     64.63% # Type of FU issued
system.cpu1.iq.FU_type_0::SimdFloatMult             0      0.00%     64.63% # Type of FU issued
system.cpu1.iq.FU_type_0::SimdFloatMultAcc            0      0.00%     64.63% # Type of FU issued
system.cpu1.iq.FU_type_0::SimdFloatSqrt             0      0.00%     64.63% # Type of FU issued
system.cpu1.iq.FU_type_0::SimdReduceAdd             0      0.00%     64.63% # Type of FU issued
system.cpu1.iq.FU_type_0::SimdReduceAlu             0      0.00%     64.63% # Type of FU issued
system.cpu1.iq.FU_type_0::SimdReduceCmp             0      0.00%     64.63% # Type of FU issued
system.cpu1.iq.FU_type_0::SimdFloatReduceAdd            0      0.00%     64.63% # Type of FU issued
system.cpu1.iq.FU_type_0::SimdFloatReduceCmp            0      0.00%     64.63% # Type of FU issued
system.cpu1.iq.FU_type_0::SimdAes                   0      0.00%     64.63% # Type of FU issued
system.cpu1.iq.FU_type_0::SimdAesMix                0      0.00%     64.63% # Type of FU issued
system.cpu1.iq.FU_type_0::SimdSha1Hash              0      0.00%     64.63% # Type of FU issued
system.cpu1.iq.FU_type_0::SimdSha1Hash2             0      0.00%     64.63% # Type of FU issued
system.cpu1.iq.FU_type_0::SimdSha256Hash            0      0.00%     64.63% # Type of FU issued
system.cpu1.iq.FU_type_0::SimdSha256Hash2            0      0.00%     64.63% # Type of FU issued
system.cpu1.iq.FU_type_0::SimdShaSigma2             0      0.00%     64.63% # Type of FU issued
system.cpu1.iq.FU_type_0::SimdShaSigma3             0      0.00%     64.63% # Type of FU issued
system.cpu1.iq.FU_type_0::SimdPredAlu               0      0.00%     64.63% # Type of FU issued
system.cpu1.iq.FU_type_0::MemRead             1283809     25.73%     90.36% # Type of FU issued
system.cpu1.iq.FU_type_0::MemWrite             481251      9.64%    100.00% # Type of FU issued
system.cpu1.iq.FU_type_0::FloatMemRead             24      0.00%    100.00% # Type of FU issued
system.cpu1.iq.FU_type_0::FloatMemWrite            18      0.00%    100.00% # Type of FU issued
system.cpu1.iq.FU_type_0::IprAccess                 0      0.00%    100.00% # Type of FU issued
system.cpu1.iq.FU_type_0::InstPrefetch              0      0.00%    100.00% # Type of FU issued
system.cpu1.iq.FU_type_0::total               4990085                       # Type of FU issued
system.cpu1.iq.fp_alu_accesses                     49                       # Number of floating point alu accesses
system.cpu1.iq.fp_inst_queue_reads                 95                       # Number of floating instruction queue reads
system.cpu1.iq.fp_inst_queue_wakeup_accesses           30                       # Number of floating instruction queue wakeup accesses
system.cpu1.iq.fp_inst_queue_writes                44                       # Number of floating instruction queue writes
system.cpu1.iq.fu_busy_cnt                      32798                       # FU busy when requested
system.cpu1.iq.fu_busy_rate                  0.006573                       # FU busy rate (busy events/executed inst)
system.cpu1.iq.fu_full::No_OpClass                  0      0.00%      0.00% # attempts to use FU when none available
system.cpu1.iq.fu_full::IntAlu                  11014     33.58%     33.58% # attempts to use FU when none available
system.cpu1.iq.fu_full::IntMult                     0      0.00%     33.58% # attempts to use FU when none available
system.cpu1.iq.fu_full::IntDiv                      0      0.00%     33.58% # attempts to use FU when none available
system.cpu1.iq.fu_full::FloatAdd                    0      0.00%     33.58% # attempts to use FU when none available
system.cpu1.iq.fu_full::FloatCmp                    0      0.00%     33.58% # attempts to use FU when none available
system.cpu1.iq.fu_full::FloatCvt                    0      0.00%     33.58% # attempts to use FU when none available
system.cpu1.iq.fu_full::FloatMult                   0      0.00%     33.58% # attempts to use FU when none available
system.cpu1.iq.fu_full::FloatMultAcc                0      0.00%     33.58% # attempts to use FU when none available
system.cpu1.iq.fu_full::FloatDiv                    0      0.00%     33.58% # attempts to use FU when none available
system.cpu1.iq.fu_full::FloatMisc                   0      0.00%     33.58% # attempts to use FU when none available
system.cpu1.iq.fu_full::FloatSqrt                   0      0.00%     33.58% # attempts to use FU when none available
system.cpu1.iq.fu_full::SimdAdd                     0      0.00%     33.58% # attempts to use FU when none available
system.cpu1.iq.fu_full::SimdAddAcc                  0      0.00%     33.58% # attempts to use FU when none available
system.cpu1.iq.fu_full::SimdAlu                     0      0.00%     33.58% # attempts to use FU when none available
system.cpu1.iq.fu_full::SimdCmp                     0      0.00%     33.58% # attempts to use FU when none available
system.cpu1.iq.fu_full::SimdCvt                     0      0.00%     33.58% # attempts to use FU when none available
system.cpu1.iq.fu_full::SimdMisc                    0      0.00%     33.58% # attempts to use FU when none available
system.cpu1.iq.fu_full::SimdMult                    0      0.00%     33.58% # attempts to use FU when none available
system.cpu1.iq.fu_full::SimdMultAcc                 0      0.00%     33.58% # attempts to use FU when none available
system.cpu1.iq.fu_full::SimdShift                   0      0.00%     33.58% # attempts to use FU when none available
system.cpu1.iq.fu_full::SimdShiftAcc                0      0.00%     33.58% # attempts to use FU when none available
system.cpu1.iq.fu_full::SimdDiv                     0      0.00%     33.58% # attempts to use FU when none available
system.cpu1.iq.fu_full::SimdSqrt                    0      0.00%     33.58% # attempts to use FU when none available
system.cpu1.iq.fu_full::SimdFloatAdd                0      0.00%     33.58% # attempts to use FU when none available
system.cpu1.iq.fu_full::SimdFloatAlu                0      0.00%     33.58% # attempts to use FU when none available
system.cpu1.iq.fu_full::SimdFloatCmp                0      0.00%     33.58% # attempts to use FU when none available
system.cpu1.iq.fu_full::SimdFloatCvt                0      0.00%     33.58% # attempts to use FU when none available
system.cpu1.iq.fu_full::SimdFloatDiv                0      0.00%     33.58% # attempts to use FU when none available
system.cpu1.iq.fu_full::SimdFloatMisc               0      0.00%     33.58% # attempts to use FU when none available
system.cpu1.iq.fu_full::SimdFloatMult               0      0.00%     33.58% # attempts to use FU when none available
system.cpu1.iq.fu_full::SimdFloatMultAcc            0      0.00%     33.58% # attempts to use FU when none available
system.cpu1.iq.fu_full::SimdFloatSqrt               0      0.00%     33.58% # attempts to use FU when none available
system.cpu1.iq.fu_full::SimdReduceAdd               0      0.00%     33.58% # attempts to use FU when none available
system.cpu1.iq.fu_full::SimdReduceAlu               0      0.00%     33.58% # attempts to use FU when none available
system.cpu1.iq.fu_full::SimdReduceCmp               0      0.00%     33.58% # attempts to use FU when none available
system.cpu1.iq.fu_full::SimdFloatReduceAdd            0      0.00%     33.58% # attempts to use FU when none available
system.cpu1.iq.fu_full::SimdFloatReduceCmp            0      0.00%     33.58% # attempts to use FU when none available
system.cpu1.iq.fu_full::SimdAes                     0      0.00%     33.58% # attempts to use FU when none available
system.cpu1.iq.fu_full::SimdAesMix                  0      0.00%     33.58% # attempts to use FU when none available
system.cpu1.iq.fu_full::SimdSha1Hash                0      0.00%     33.58% # attempts to use FU when none available
system.cpu1.iq.fu_full::SimdSha1Hash2               0      0.00%     33.58% # attempts to use FU when none available
system.cpu1.iq.fu_full::SimdSha256Hash              0      0.00%     33.58% # attempts to use FU when none available
system.cpu1.iq.fu_full::SimdSha256Hash2             0      0.00%     33.58% # attempts to use FU when none available
system.cpu1.iq.fu_full::SimdShaSigma2               0      0.00%     33.58% # attempts to use FU when none available
system.cpu1.iq.fu_full::SimdShaSigma3               0      0.00%     33.58% # attempts to use FU when none available
system.cpu1.iq.fu_full::SimdPredAlu                 0      0.00%     33.58% # attempts to use FU when none available
[...]
system.cpu1.dcache.WriteReq_mshr_miss_rate::.cpu1.data     0.064470                       # mshr miss rate for WriteReq accesses
system.cpu1.dcache.WriteReq_mshr_miss_rate::total     0.064470                       # mshr miss rate for WriteReq accesses
system.cpu1.dcache.WriteReq_avg_mshr_miss_latency::.cpu1.data 67601.913381                       # average WriteReq mshr miss latency
system.cpu1.dcache.WriteReq_avg_mshr_miss_latency::total 67601.913381                       # average WriteReq mshr miss latency
system.cpu1.dcache.LoadLockedReq_hits::.cpu1.data         2746                       # number of LoadLockedReq hits
system.cpu1.dcache.LoadLockedReq_hits::total         2746                       # number of LoadLockedReq hits
system.cpu1.dcache.LoadLockedReq_misses::.cpu1.data          960                       # number of LoadLockedReq misses
system.cpu1.dcache.LoadLockedReq_misses::total          960                       # number of LoadLockedReq misses
system.cpu1.dcache.LoadLockedReq_miss_latency::.cpu1.data     39146000                       # number of LoadLockedReq miss cycles
system.cpu1.dcache.LoadLockedReq_miss_latency::total     39146000                       # number of LoadLockedReq miss cycles
system.cpu1.dcache.LoadLockedReq_accesses::.cpu1.data         3706                       # number of LoadLockedReq accesses(hits+misses)
system.cpu1.dcache.LoadLockedReq_accesses::total         3706                       # number of LoadLockedReq accesses(hits+misses)
system.cpu1.dcache.LoadLockedReq_miss_rate::.cpu1.data     0.259039                       # miss rate for LoadLockedReq accesses
system.cpu1.dcache.LoadLockedReq_miss_rate::total     0.259039                       # miss rate for LoadLockedReq accesses
system.cpu1.dcache.LoadLockedReq_avg_miss_latency::.cpu1.data 40777.083333                       # average LoadLockedReq miss latency
system.cpu1.dcache.LoadLockedReq_avg_miss_latency::total 40777.083333                       # average LoadLockedReq miss latency
system.cpu1.dcache.LoadLockedReq_mshr_hits::.cpu1.data          576                       # number of LoadLockedReq MSHR hits
system.cpu1.dcache.LoadLockedReq_mshr_hits::total          576                       # number of LoadLockedReq MSHR hits
system.cpu1.dcache.LoadLockedReq_mshr_misses::.cpu1.data          384                       # number of LoadLockedReq MSHR misses
system.cpu1.dcache.LoadLockedReq_mshr_misses::total          384                       # number of LoadLockedReq MSHR misses
system.cpu1.dcache.LoadLockedReq_mshr_miss_latency::.cpu1.data      1504000                       # number of LoadLockedReq MSHR miss cycles
system.cpu1.dcache.LoadLockedReq_mshr_miss_latency::total      1504000                       # number of LoadLockedReq MSHR miss cycles
system.cpu1.dcache.LoadLockedReq_mshr_miss_rate::.cpu1.data     0.103616                       # mshr miss rate for LoadLockedReq accesses
system.cpu1.dcache.LoadLockedReq_mshr_miss_rate::total     0.103616                       # mshr miss rate for LoadLockedReq accesses
system.cpu1.dcache.LoadLockedReq_avg_mshr_miss_latency::.cpu1.data  3916.666667                       # average LoadLockedReq mshr miss latency
system.cpu1.dcache.LoadLockedReq_avg_mshr_miss_latency::total  3916.666667                       # average LoadLockedReq mshr miss latency
system.cpu1.dcache.StoreCondReq_hits::.cpu1.data         1436                       # number of StoreCondReq hits
system.cpu1.dcache.StoreCondReq_hits::total         1436                       # number of StoreCondReq hits
system.cpu1.dcache.StoreCondReq_misses::.cpu1.data         1329                       # number of StoreCondReq misses
system.cpu1.dcache.StoreCondReq_misses::total         1329                       # number of StoreCondReq misses
system.cpu1.dcache.StoreCondReq_miss_latency::.cpu1.data      8449000                       # number of StoreCondReq miss cycles
system.cpu1.dcache.StoreCondReq_miss_latency::total      8449000                       # number of StoreCondReq miss cycles
system.cpu1.dcache.StoreCondReq_accesses::.cpu1.data         2765                       # number of StoreCondReq accesses(hits+misses)
system.cpu1.dcache.StoreCondReq_accesses::total         2765                       # number of StoreCondReq accesses(hits+misses)
system.cpu1.dcache.StoreCondReq_miss_rate::.cpu1.data     0.480651                       # miss rate for StoreCondReq accesses
system.cpu1.dcache.StoreCondReq_miss_rate::total     0.480651                       # miss rate for StoreCondReq accesses
system.cpu1.dcache.StoreCondReq_avg_miss_latency::.cpu1.data  6357.411588                       # average StoreCondReq miss latency
system.cpu1.dcache.StoreCondReq_avg_miss_latency::total  6357.411588                       # average StoreCondReq miss latency
system.cpu1.dcache.StoreCondReq_mshr_misses::.cpu1.data         1311                       # number of StoreCondReq MSHR misses
system.cpu1.dcache.StoreCondReq_mshr_misses::total         1311                       # number of StoreCondReq MSHR misses
system.cpu1.dcache.StoreCondReq_mshr_miss_latency::.cpu1.data      7294000                       # number of StoreCondReq MSHR miss cycles
system.cpu1.dcache.StoreCondReq_mshr_miss_latency::total      7294000                       # number of StoreCondReq MSHR miss cycles
system.cpu1.dcache.StoreCondReq_mshr_miss_rate::.cpu1.data     0.474141                       # mshr miss rate for StoreCondReq accesses
system.cpu1.dcache.StoreCondReq_mshr_miss_rate::total     0.474141                       # mshr miss rate for StoreCondReq accesses
system.cpu1.dcache.StoreCondReq_avg_mshr_miss_latency::.cpu1.data  5563.691838                       # average StoreCondReq mshr miss latency
system.cpu1.dcache.StoreCondReq_avg_mshr_miss_latency::total  5563.691838                       # average StoreCondReq mshr miss latency
system.cpu1.dcache.StoreCondFailReq_miss_latency::.cpu1.data      2200000                       # number of StoreCondFailReq miss cycles
system.cpu1.dcache.StoreCondFailReq_miss_latency::total      2200000                       # number of StoreCondFailReq miss cycles
system.cpu1.dcache.StoreCondFailReq_avg_miss_latency::.cpu1.data          inf                       # average StoreCondFailReq miss latency
system.cpu1.dcache.StoreCondFailReq_avg_miss_latency::total          inf                       # average StoreCondFailReq miss latency
system.cpu1.dcache.StoreCondFailReq_mshr_miss_latency::.cpu1.data      2044000                       # number of StoreCondFailReq MSHR miss cycles
system.cpu1.dcache.StoreCondFailReq_mshr_miss_latency::total      2044000                       # number of StoreCondFailReq MSHR miss cycles
system.cpu1.dcache.StoreCondFailReq_avg_mshr_miss_latency::.cpu1.data          inf                       # average StoreCondFailReq mshr miss latency
system.cpu1.dcache.StoreCondFailReq_avg_mshr_miss_latency::total          inf                       # average StoreCondFailReq mshr miss latency
system.cpu1.dcache.SwapReq_hits::.cpu1.data         1028                       # number of SwapReq hits
system.cpu1.dcache.SwapReq_hits::total           1028                       # number of SwapReq hits
system.cpu1.dcache.SwapReq_misses::.cpu1.data         4358                       # number of SwapReq misses
system.cpu1.dcache.SwapReq_misses::total         4358                       # number of SwapReq misses
system.cpu1.dcache.SwapReq_miss_latency::.cpu1.data    115971500                       # number of SwapReq miss cycles
system.cpu1.dcache.SwapReq_miss_latency::total    115971500                       # number of SwapReq miss cycles
system.cpu1.dcache.SwapReq_accesses::.cpu1.data         5386                       # number of SwapReq accesses(hits+misses)
system.cpu1.dcache.SwapReq_accesses::total         5386                       # number of SwapReq accesses(hits+misses)
system.cpu1.dcache.SwapReq_miss_rate::.cpu1.data     0.809135                       # miss rate for SwapReq accesses
system.cpu1.dcache.SwapReq_miss_rate::total     0.809135                       # miss rate for SwapReq accesses
system.cpu1.dcache.SwapReq_avg_miss_latency::.cpu1.data 26611.174851                       # average SwapReq miss latency
system.cpu1.dcache.SwapReq_avg_miss_latency::total 26611.174851                       # average SwapReq miss latency
system.cpu1.dcache.SwapReq_mshr_hits::.cpu1.data            2                       # number of SwapReq MSHR hits
system.cpu1.dcache.SwapReq_mshr_hits::total            2                       # number of SwapReq MSHR hits
system.cpu1.dcache.SwapReq_mshr_misses::.cpu1.data         4356                       # number of SwapReq MSHR misses
system.cpu1.dcache.SwapReq_mshr_misses::total         4356                       # number of SwapReq MSHR misses
system.cpu1.dcache.SwapReq_mshr_miss_latency::.cpu1.data    111613500                       # number of SwapReq MSHR miss cycles
system.cpu1.dcache.SwapReq_mshr_miss_latency::total    111613500                       # number of SwapReq MSHR miss cycles
system.cpu1.dcache.SwapReq_mshr_miss_rate::.cpu1.data     0.808763                       # mshr miss rate for SwapReq accesses
system.cpu1.dcache.SwapReq_mshr_miss_rate::total     0.808763                       # mshr miss rate for SwapReq accesses
system.cpu1.dcache.SwapReq_avg_mshr_miss_latency::.cpu1.data 25622.933884                       # average SwapReq mshr miss latency
system.cpu1.dcache.SwapReq_avg_mshr_miss_latency::total 25622.933884                       # average SwapReq mshr miss latency
system.cpu1.dcache.tags.pwrStateResidencyTicks::UNDEFINED  39643701500                       # Cumulative time (in ticks) in various power states
system.cpu1.dcache.tags.tagsinuse           31.315129                       # Cycle average of tags in use
system.cpu1.dcache.tags.total_refs            5389184                       # Total number of references to valid blocks.
system.cpu1.dcache.tags.sampled_refs          2953897                       # Sample count of references to valid blocks.
system.cpu1.dcache.tags.avg_refs             1.824432                       # Average number of references to valid blocks.
system.cpu1.dcache.tags.warmup_cycle                0                       # Cycle when the warmup percentage was hit.
system.cpu1.dcache.tags.occ_blocks::.cpu1.data    31.315129                       # Average occupied blocks per requestor
system.cpu1.dcache.tags.occ_percent::.cpu1.data     0.978598                       # Average percentage of cache occupancy
system.cpu1.dcache.tags.occ_percent::total     0.978598                       # Average percentage of cache occupancy
system.cpu1.dcache.tags.occ_task_id_blocks::1024           25                       # Occupied blocks per task id
system.cpu1.dcache.tags.age_task_id_blocks_1024::1           25                       # Occupied blocks per task id
system.cpu1.dcache.tags.occ_task_id_percent::1024     0.781250                       # Percentage of cache occupancy per task id
system.cpu1.dcache.tags.tag_accesses         20334511                       # Number of tag accesses
system.cpu1.dcache.tags.data_accesses        20334511                       # Number of data accesses
system.cpu_clk_domain.clock                       500                       # Clock period in ticks
system.tol2bus.pwrStateResidencyTicks::UNDEFINED  39643701500                       # Cumulative time (in ticks) in various power states
system.tol2bus.trans_dist::ReadResp          11841489                       # Transaction distribution
system.tol2bus.trans_dist::ReadRespWithInvalidate           11                       # Transaction distribution
system.tol2bus.trans_dist::WritebackDirty       416309                       # Transaction distribution
system.tol2bus.trans_dist::WritebackClean       121094                       # Transaction distribution
system.tol2bus.trans_dist::CleanEvict        14490817                       # Transaction distribution
system.tol2bus.trans_dist::UpgradeReq            8906                       # Transaction distribution
system.tol2bus.trans_dist::SCUpgradeReq          5085                       # Transaction distribution
system.tol2bus.trans_dist::UpgradeResp          13991                       # Transaction distribution
system.tol2bus.trans_dist::SCUpgradeFailReq          488                       # Transaction distribution
system.tol2bus.trans_dist::UpgradeFailResp          488                       # Transaction distribution
system.tol2bus.trans_dist::ReadExReq           113218                       # Transaction distribution
system.tol2bus.trans_dist::ReadExResp          113218                       # Transaction distribution
system.tol2bus.trans_dist::ReadCleanReq        121095                       # Transaction distribution
system.tol2bus.trans_dist::ReadSharedReq     11720407                       # Transaction distribution
system.tol2bus.trans_dist::InvalidateReq            1                       # Transaction distribution
system.tol2bus.trans_dist::InvalidateResp            1                       # Transaction distribution
system.tol2bus.pkt_count_system.cpu0.icache.mem_side::system.l2.cpu_side       219250                       # Packet count per connected master and slave (bytes)
system.tol2bus.pkt_count_system.cpu0.dcache.mem_side::system.l2.cpu_side      8866855                       # Packet count per connected master and slave (bytes)
system.tol2bus.pkt_count_system.cpu1.icache.mem_side::system.l2.cpu_side        46122                       # Packet count per connected master and slave (bytes)
system.tol2bus.pkt_count_system.cpu1.dcache.mem_side::system.l2.cpu_side      8849666                       # Packet count per connected master and slave (bytes)
system.tol2bus.pkt_count_system.cpu2.icache.mem_side::system.l2.cpu_side        49143                       # Packet count per connected master and slave (bytes)
system.tol2bus.pkt_count_system.cpu2.dcache.mem_side::system.l2.cpu_side      8878417                       # Packet count per connected master and slave (bytes)
system.tol2bus.pkt_count_system.cpu3.icache.mem_side::system.l2.cpu_side        48768                       # Packet count per connected master and slave (bytes)
system.tol2bus.pkt_count_system.cpu3.dcache.mem_side::system.l2.cpu_side      8862463                       # Packet count per connected master and slave (bytes)
system.tol2bus.pkt_count::total              35820684                       # Packet count per connected master and slave (bytes)
system.tol2bus.pkt_size_system.cpu0.icache.mem_side::system.l2.cpu_side      9354624                       # Cumulative packet size per connected master and slave (bytes)
system.tol2bus.pkt_size_system.cpu0.dcache.mem_side::system.l2.cpu_side    194116096                       # Cumulative packet size per connected master and slave (bytes)
system.tol2bus.pkt_size_system.cpu1.icache.mem_side::system.l2.cpu_side      1967872                       # Cumulative packet size per connected master and slave (bytes)
system.tol2bus.pkt_size_system.cpu1.dcache.mem_side::system.l2.cpu_side    192535936                       # Cumulative packet size per connected master and slave (bytes)
system.tol2bus.pkt_size_system.cpu2.icache.mem_side::system.l2.cpu_side      2096768                       # Cumulative packet size per connected master and slave (bytes)
system.tol2bus.pkt_size_system.cpu2.dcache.mem_side::system.l2.cpu_side    193201088                       # Cumulative packet size per connected master and slave (bytes)
system.tol2bus.pkt_size_system.cpu3.icache.mem_side::system.l2.cpu_side      2080768                       # Cumulative packet size per connected master and slave (bytes)
system.tol2bus.pkt_size_system.cpu3.dcache.mem_side::system.l2.cpu_side    192768832                       # Cumulative packet size per connected master and slave (bytes)
system.tol2bus.pkt_size::total              788121984                       # Cumulative packet size per connected master and slave (bytes)
system.tol2bus.snoops                         3145934                       # Total snoops (count)
system.tol2bus.snoopTraffic                  11404992                       # Total snoop traffic (bytes)
system.tol2bus.snoop_fanout::samples         15070294                       # Request fanout histogram
system.tol2bus.snoop_fanout::mean            0.362256                       # Request fanout histogram
system.tol2bus.snoop_fanout::stdev           0.623541                       # Request fanout histogram
system.tol2bus.snoop_fanout::underflows             0      0.00%      0.00% # Request fanout histogram
system.tol2bus.snoop_fanout::0               10658988     70.73%     70.73% # Request fanout histogram
system.tol2bus.snoop_fanout::1                3498317     23.21%     93.94% # Request fanout histogram
system.tol2bus.snoop_fanout::2                 783855      5.20%     99.14% # Request fanout histogram
system.tol2bus.snoop_fanout::3                 123261      0.82%     99.96% # Request fanout histogram
system.tol2bus.snoop_fanout::4                   5873      0.04%    100.00% # Request fanout histogram
system.tol2bus.snoop_fanout::5                      0      0.00%    100.00% # Request fanout histogram
system.tol2bus.snoop_fanout::6                      0      0.00%    100.00% # Request fanout histogram
system.tol2bus.snoop_fanout::7                      0      0.00%    100.00% # Request fanout histogram
system.tol2bus.snoop_fanout::8                      0      0.00%    100.00% # Request fanout histogram
system.tol2bus.snoop_fanout::overflows              0      0.00%    100.00% # Request fanout histogram
system.tol2bus.snoop_fanout::min_value              0                       # Request fanout histogram
system.tol2bus.snoop_fanout::max_value              4                       # Request fanout histogram
system.tol2bus.snoop_fanout::total           15070294                       # Request fanout histogram
system.tol2bus.reqLayer0.occupancy        12341093771                       # Layer occupancy (ticks)
system.tol2bus.reqLayer0.utilization             31.1                       # Layer utilization (%)
system.tol2bus.respLayer5.occupancy        4564160625                       # Layer occupancy (ticks)
system.tol2bus.respLayer5.utilization            11.5                       # Layer utilization (%)
system.tol2bus.respLayer4.occupancy          25475605                       # Layer occupancy (ticks)
system.tol2bus.respLayer4.utilization             0.1                       # Layer utilization (%)
system.tol2bus.respLayer7.occupancy        4557523028                       # Layer occupancy (ticks)
system.tol2bus.respLayer7.utilization            11.5                       # Layer utilization (%)
system.tol2bus.respLayer6.occupancy          25288138                       # Layer occupancy (ticks)
system.tol2bus.respLayer6.utilization             0.1                       # Layer utilization (%)
system.tol2bus.respLayer1.occupancy        4557120959                       # Layer occupancy (ticks)
system.tol2bus.respLayer1.utilization            11.5                       # Layer utilization (%)
system.tol2bus.respLayer0.occupancy         110008025                       # Layer occupancy (ticks)
system.tol2bus.respLayer0.utilization             0.3                       # Layer utilization (%)
system.tol2bus.respLayer3.occupancy        4549861985                       # Layer occupancy (ticks)
system.tol2bus.respLayer3.utilization            11.5                       # Layer utilization (%)
system.tol2bus.respLayer2.occupancy          23966680                       # Layer occupancy (ticks)
system.tol2bus.respLayer2.utilization             0.1                       # Layer utilization (%)

---------- End Simulation Statistics   ----------
