
---------- Begin Simulation Statistics ----------
final_tick                               624234341000                       # Number of ticks from beginning of simulation (restored from checkpoints and never reset)
host_inst_rate                                  98420                       # Simulator instruction rate (inst/s)
host_mem_usage                                 739512                       # Number of bytes of host memory used
host_op_rate                                    98747                       # Simulator op (including micro ops) rate (op/s)
host_seconds                                  6232.59                       # Real time elapsed on the host
host_tick_rate                              100156514                       # Simulator tick rate (ticks/s)
sim_freq                                 1000000000000                       # Frequency of simulated ticks
sim_insts                                   613409392                       # Number of instructions simulated
sim_ops                                     615448192                       # Number of ops (including micro ops) simulated
sim_seconds                                  0.624234                       # Number of seconds simulated
sim_ticks                                624234341000                       # Number of ticks simulated
system.cpu0.branchPred.BTBCorrect                   0                       # Number of correct BTB predictions (this stat may not work properly.
system.cpu0.branchPred.BTBHitPct            86.985720                       # BTB Hit Percentage
system.cpu0.branchPred.BTBHits               75192493                       # Number of BTB hits
system.cpu0.branchPred.BTBLookups            86442341                       # Number of BTB lookups
system.cpu0.branchPred.RASInCorrect                 0                       # Number of incorrect RAS predictions.
system.cpu0.branchPred.condIncorrect          6437692                       # Number of conditional branches incorrect
system.cpu0.branchPred.condPredicted        116077948                       # Number of conditional branches predicted
system.cpu0.branchPred.indirectHits          10395388                       # Number of indirect target hits.
system.cpu0.branchPred.indirectLookups       10463598                       # Number of indirect predictor lookups.
system.cpu0.branchPred.indirectMisses           68210                       # Number of indirect misses.
system.cpu0.branchPred.lookups              149484925                       # Number of BP lookups
system.cpu0.branchPred.usedRAS                      0                       # Number of times the RAS was used to get a target.
system.cpu0.branchPredindirectMispredicted      1053003                       # Number of mispredicted indirect branches.
system.cpu0.commit.amos                        509389                       # Number of atomic instructions committed
system.cpu0.commit.branchMispredicts          4562611                       # The number of times a branch was mispredicted
system.cpu0.commit.branches                 138970848                       # Number of branches committed
system.cpu0.commit.bw_lim_events             28123089                       # number cycles where commit BW limit reached
system.cpu0.commit.commitNonSpecStalls        1532385                       # The number of times commit has been forced to stall to communicate backwards
system.cpu0.commit.commitSquashedInsts       37575361                       # The number of squashed insts skipped by commit
system.cpu0.commit.committedInsts           561793457                       # Number of instructions committed
system.cpu0.commit.committedOps             562304136                       # Number of ops (including micro ops) committed
system.cpu0.commit.committed_per_cycle::samples   1005799665                       # Number of insts commited each cycle
system.cpu0.commit.committed_per_cycle::mean     0.559062                       # Number of insts commited each cycle
system.cpu0.commit.committed_per_cycle::stdev     1.526799                       # Number of insts commited each cycle
system.cpu0.commit.committed_per_cycle::underflows            0      0.00%      0.00% # Number of insts commited each cycle
system.cpu0.commit.committed_per_cycle::0    781856410     77.73%     77.73% # Number of insts commited each cycle
system.cpu0.commit.committed_per_cycle::1    124785008     12.41%     90.14% # Number of insts commited each cycle
system.cpu0.commit.committed_per_cycle::2     28803680      2.86%     93.01% # Number of insts commited each cycle
system.cpu0.commit.committed_per_cycle::3     26995811      2.68%     95.69% # Number of insts commited each cycle
system.cpu0.commit.committed_per_cycle::4      8186718      0.81%     96.50% # Number of insts commited each cycle
system.cpu0.commit.committed_per_cycle::5      2860702      0.28%     96.79% # Number of insts commited each cycle
system.cpu0.commit.committed_per_cycle::6      2428488      0.24%     97.03% # Number of insts commited each cycle
system.cpu0.commit.committed_per_cycle::7      1759759      0.17%     97.20% # Number of insts commited each cycle
system.cpu0.commit.committed_per_cycle::8     28123089      2.80%    100.00% # Number of insts commited each cycle
system.cpu0.commit.committed_per_cycle::overflows            0      0.00%    100.00% # Number of insts commited each cycle
system.cpu0.commit.committed_per_cycle::min_value            0                       # Number of insts commited each cycle
system.cpu0.commit.committed_per_cycle::max_value            8                       # Number of insts commited each cycle
system.cpu0.commit.committed_per_cycle::total   1005799665                       # Number of insts commited each cycle
system.cpu0.commit.fp_insts                        46                       # Number of committed floating point instructions.
system.cpu0.commit.function_calls            11672193                       # Number of function calls committed.
system.cpu0.commit.int_insts                543439228                       # Number of committed integer instructions.
system.cpu0.commit.loads                    174760264                       # Number of loads committed
system.cpu0.commit.membars                    1019962                       # Number of memory barriers committed
system.cpu0.commit.op_class_0::No_OpClass      1019968      0.18%      0.18% # Class of committed instruction
system.cpu0.commit.op_class_0::IntAlu       311045553     55.32%     55.50% # Class of committed instruction
system.cpu0.commit.op_class_0::IntMult        4135910      0.74%     56.23% # Class of committed instruction
system.cpu0.commit.op_class_0::IntDiv         1017773      0.18%     56.41% # Class of committed instruction
system.cpu0.commit.op_class_0::FloatAdd             0      0.00%     56.41% # Class of committed instruction
system.cpu0.commit.op_class_0::FloatCmp             4      0.00%     56.41% # Class of committed instruction
system.cpu0.commit.op_class_0::FloatCvt            12      0.00%     56.41% # Class of committed instruction
system.cpu0.commit.op_class_0::FloatMult            0      0.00%     56.41% # Class of committed instruction
system.cpu0.commit.op_class_0::FloatMultAcc            0      0.00%     56.41% # Class of committed instruction
system.cpu0.commit.op_class_0::FloatDiv             2      0.00%     56.41% # Class of committed instruction
system.cpu0.commit.op_class_0::FloatMisc            4      0.00%     56.41% # Class of committed instruction
system.cpu0.commit.op_class_0::FloatSqrt            0      0.00%     56.41% # Class of committed instruction
system.cpu0.commit.op_class_0::SimdAdd              0      0.00%     56.41% # Class of committed instruction
system.cpu0.commit.op_class_0::SimdAddAcc            0      0.00%     56.41% # Class of committed instruction
system.cpu0.commit.op_class_0::SimdAlu              0      0.00%     56.41% # Class of committed instruction
system.cpu0.commit.op_class_0::SimdCmp              0      0.00%     56.41% # Class of committed instruction
system.cpu0.commit.op_class_0::SimdCvt              0      0.00%     56.41% # Class of committed instruction
system.cpu0.commit.op_class_0::SimdMisc             0      0.00%     56.41% # Class of committed instruction
system.cpu0.commit.op_class_0::SimdMult             0      0.00%     56.41% # Class of committed instruction
system.cpu0.commit.op_class_0::SimdMultAcc            0      0.00%     56.41% # Class of committed instruction
system.cpu0.commit.op_class_0::SimdShift            0      0.00%     56.41% # Class of committed instruction
system.cpu0.commit.op_class_0::SimdShiftAcc            0      0.00%     56.41% # Class of committed instruction
system.cpu0.commit.op_class_0::SimdDiv              0      0.00%     56.41% # Class of committed instruction
system.cpu0.commit.op_class_0::SimdSqrt             0      0.00%     56.41% # Class of committed instruction
system.cpu0.commit.op_class_0::SimdFloatAdd            0      0.00%     56.41% # Class of committed instruction
system.cpu0.commit.op_class_0::SimdFloatAlu            0      0.00%     56.41% # Class of committed instruction
system.cpu0.commit.op_class_0::SimdFloatCmp            0      0.00%     56.41% # Class of committed instruction
system.cpu0.commit.op_class_0::SimdFloatCvt            0      0.00%     56.41% # Class of committed instruction
system.cpu0.commit.op_class_0::SimdFloatDiv            0      0.00%     56.41% # Class of committed instruction
system.cpu0.commit.op_class_0::SimdFloatMisc            0      0.00%     56.41% # Class of committed instruction
system.cpu0.commit.op_class_0::SimdFloatMult            0      0.00%     56.41% # Class of committed instruction
system.cpu0.commit.op_class_0::SimdFloatMultAcc            0      0.00%     56.41% # Class of committed instruction
system.cpu0.commit.op_class_0::SimdFloatSqrt            0      0.00%     56.41% # Class of committed instruction
system.cpu0.commit.op_class_0::SimdReduceAdd            0      0.00%     56.41% # Class of committed instruction
system.cpu0.commit.op_class_0::SimdReduceAlu            0      0.00%     56.41% # Class of committed instruction
system.cpu0.commit.op_class_0::SimdReduceCmp            0      0.00%     56.41% # Class of committed instruction
system.cpu0.commit.op_class_0::SimdFloatReduceAdd            0      0.00%     56.41% # Class of committed instruction
system.cpu0.commit.op_class_0::SimdFloatReduceCmp            0      0.00%     56.41% # Class of committed instruction
system.cpu0.commit.op_class_0::SimdAes              0      0.00%     56.41% # Class of committed instruction
system.cpu0.commit.op_class_0::SimdAesMix            0      0.00%     56.41% # Class of committed instruction
system.cpu0.commit.op_class_0::SimdSha1Hash            0      0.00%     56.41% # Class of committed instruction
system.cpu0.commit.op_class_0::SimdSha1Hash2            0      0.00%     56.41% # Class of committed instruction
system.cpu0.commit.op_class_0::SimdSha256Hash            0      0.00%     56.41% # Class of committed instruction
system.cpu0.commit.op_class_0::SimdSha256Hash2            0      0.00%     56.41% # Class of committed instruction
system.cpu0.commit.op_class_0::SimdShaSigma2            0      0.00%     56.41% # Class of committed instruction
system.cpu0.commit.op_class_0::SimdShaSigma3            0      0.00%     56.41% # Class of committed instruction
system.cpu0.commit.op_class_0::SimdPredAlu            0      0.00%     56.41% # Class of committed instruction
system.cpu0.commit.op_class_0::MemRead      175269645     31.17%     87.58% # Class of committed instruction
system.cpu0.commit.op_class_0::MemWrite      69815241     12.42%    100.00% # Class of committed instruction
system.cpu0.commit.op_class_0::FloatMemRead            8      0.00%    100.00% # Class of committed instruction
system.cpu0.commit.op_class_0::FloatMemWrite           16      0.00%    100.00% # Class of committed instruction
system.cpu0.commit.op_class_0::IprAccess            0      0.00%    100.00% # Class of committed instruction
system.cpu0.commit.op_class_0::InstPrefetch            0      0.00%    100.00% # Class of committed instruction
system.cpu0.commit.op_class_0::total        562304136                       # Class of committed instruction
system.cpu0.commit.refs                     245084910                       # Number of memory references committed
system.cpu0.commit.swp_count                        0                       # Number of s/w prefetches committed
system.cpu0.commit.vec_insts                        0                       # Number of committed Vector instructions.
system.cpu0.committedInsts                  561793457                       # Number of Instructions Simulated
system.cpu0.committedOps                    562304136                       # Number of Ops (including micro ops) Simulated
system.cpu0.cpi                              2.199907                       # CPI: Cycles Per Instruction
system.cpu0.cpi_total                        2.199907                       # CPI: Total CPI of All Threads
system.cpu0.decode.BlockedCycles            169209240                       # Number of cycles decode is blocked
system.cpu0.decode.BranchMispred              1881818                       # Number of times decode detected a branch misprediction
system.cpu0.decode.BranchResolved            74533997                       # Number of times decode resolved a branch
system.cpu0.decode.DecodedInsts             611064379                       # Number of instructions handled by decode
system.cpu0.decode.IdleCycles               420883555                       # Number of cycles decode is idle
system.cpu0.decode.RunCycles                415718715                       # Number of cycles decode is running
system.cpu0.decode.SquashCycles               4569998                       # Number of cycles decode is squashing
system.cpu0.decode.SquashedInsts              3884376                       # Number of squashed instructions handled by decode
system.cpu0.decode.UnblockCycles              2891415                       # Number of cycles decode is unblocking
system.cpu0.dtb.accesses                            0                       # DTB accesses
system.cpu0.dtb.hits                                0                       # DTB hits
system.cpu0.dtb.misses                              0                       # DTB misses
system.cpu0.dtb.read_accesses                       0                       # DTB read accesses
system.cpu0.dtb.read_hits                           0                       # DTB read hits
system.cpu0.dtb.read_misses                         0                       # DTB read misses
system.cpu0.dtb.write_accesses                      0                       # DTB write accesses
system.cpu0.dtb.write_hits                          0                       # DTB write hits
system.cpu0.dtb.write_misses                        0                       # DTB write misses
system.cpu0.fetch.Branches                  149484925                       # Number of branches that fetch encountered
system.cpu0.fetch.CacheLines                106268827                       # Number of cache lines fetched
system.cpu0.fetch.Cycles                    568959936                       # Number of cycles fetch has run and was not squashing or blocked
system.cpu0.fetch.IcacheSquashes              2983152                       # Number of outstanding Icache misses that were squashed
system.cpu0.fetch.IcacheWaitRetryStallCycles          135                       # Number of stall cycles due to full MSHR
system.cpu0.fetch.Insts                     619554294                       # Number of instructions fetch has processed
system.cpu0.fetch.MiscStallCycles                  15                       # Number of cycles fetch has spent waiting on interrupts, or bad addresses, or out of MSHRs
system.cpu0.fetch.PendingTrapStallCycles            6                       # Number of stall cycles due to pending traps
system.cpu0.fetch.SquashCycles               12890160                       # Number of cycles fetch has spent squashing
system.cpu0.fetch.branchRate                 0.120953                       # Number of branch fetches per cycle
system.cpu0.fetch.icacheStallCycles         437867751                       # Number of cycles fetch is stalled on an Icache miss
system.cpu0.fetch.predictedBranches          85587881                       # Number of branches that fetch has predicted taken
system.cpu0.fetch.rate                       0.501301                       # Number of inst fetches per cycle
system.cpu0.fetch.rateDist::samples        1013272923                       # Number of instructions fetched each cycle (Total)
system.cpu0.fetch.rateDist::mean             0.611944                       # Number of instructions fetched each cycle (Total)
system.cpu0.fetch.rateDist::stdev            0.884954                       # Number of instructions fetched each cycle (Total)
system.cpu0.fetch.rateDist::underflows              0      0.00%      0.00% # Number of instructions fetched each cycle (Total)
system.cpu0.fetch.rateDist::0               568966130     56.15%     56.15% # Number of instructions fetched each cycle (Total)
system.cpu0.fetch.rateDist::1               331598561     32.73%     88.88% # Number of instructions fetched each cycle (Total)
system.cpu0.fetch.rateDist::2                68124899      6.72%     95.60% # Number of instructions fetched each cycle (Total)
system.cpu0.fetch.rateDist::3                36050808      3.56%     99.16% # Number of instructions fetched each cycle (Total)
system.cpu0.fetch.rateDist::4                 3756115      0.37%     99.53% # Number of instructions fetched each cycle (Total)
system.cpu0.fetch.rateDist::5                 2683323      0.26%     99.79% # Number of instructions fetched each cycle (Total)
system.cpu0.fetch.rateDist::6                   49268      0.00%     99.80% # Number of instructions fetched each cycle (Total)
system.cpu0.fetch.rateDist::7                 1022114      0.10%     99.90% # Number of instructions fetched each cycle (Total)
system.cpu0.fetch.rateDist::8                 1021705      0.10%    100.00% # Number of instructions fetched each cycle (Total)
system.cpu0.fetch.rateDist::overflows               0      0.00%    100.00% # Number of instructions fetched each cycle (Total)
system.cpu0.fetch.rateDist::min_value               0                       # Number of instructions fetched each cycle (Total)
system.cpu0.fetch.rateDist::max_value               8                       # Number of instructions fetched each cycle (Total)
system.cpu0.fetch.rateDist::total          1013272923                       # Number of instructions fetched each cycle (Total)
system.cpu0.fp_regfile_reads                       40                       # number of floating regfile reads
system.cpu0.fp_regfile_writes                      22                       # number of floating regfile writes
system.cpu0.idleCycles                      222620601                       # Total number of cycles that the CPU has spent unscheduled due to idling
system.cpu0.iew.branchMispredicts             4620347                       # Number of branch mispredicts detected at execute
system.cpu0.iew.exec_branches               142829200                       # Number of branches executed
system.cpu0.iew.exec_nop                            0                       # number of nop insts executed
system.cpu0.iew.exec_rate                    0.479076                       # Inst execution rate
system.cpu0.iew.exec_refs                   262711843                       # number of memory reference insts executed
system.cpu0.iew.exec_stores                  73619669                       # Number of stores executed
system.cpu0.iew.exec_swp                            0                       # number of swp insts executed
system.cpu0.iew.iewBlockCycles               87707668                       # Number of cycles IEW is blocking
system.cpu0.iew.iewDispLoadInsts            189414600                       # Number of dispatched load instructions
system.cpu0.iew.iewDispNonSpecInsts            512635                       # Number of dispatched non-speculative instructions
system.cpu0.iew.iewDispSquashedInsts          2164547                       # Number of squashed instructions skipped by dispatch
system.cpu0.iew.iewDispStoreInsts            75352487                       # Number of dispatched store instructions
system.cpu0.iew.iewDispatchedInsts          599862933                       # Number of instructions dispatched to IQ
system.cpu0.iew.iewExecLoadInsts            189092174                       # Number of load instructions executed
system.cpu0.iew.iewExecSquashedInsts          4696659                       # Number of squashed instructions skipped in execute
system.cpu0.iew.iewExecutedInsts            592087528                       # Number of executed instructions
system.cpu0.iew.iewIQFullEvents                369087                       # Number of times the IQ has become full, causing a stall
system.cpu0.iew.iewIdleCycles                       0                       # Number of cycles IEW is idle
system.cpu0.iew.iewLSQFullEvents             44415726                       # Number of times the LSQ has become full, causing a stall
system.cpu0.iew.iewSquashCycles               4569998                       # Number of cycles IEW is squashing
system.cpu0.iew.iewUnblockCycles             45470078                       # Number of cycles IEW is unblocking
system.cpu0.iew.lsq.thread0.blockedLoads            0                       # Number of blocked loads due to partial load-store forwarding
system.cpu0.iew.lsq.thread0.cacheBlocked       152928                       # Number of times an access to memory failed due to the cache being blocked
system.cpu0.iew.lsq.thread0.forwLoads        14918455                       # Number of loads that had data forwarded from stores
system.cpu0.iew.lsq.thread0.ignoredResponses        31209                       # Number of memory responses ignored because the instruction is squashed
system.cpu0.iew.lsq.thread0.invAddrLoads            0                       # Number of loads ignored due to an invalid address
system.cpu0.iew.lsq.thread0.invAddrSwpfs            0                       # Number of software prefetches ignored due to an invalid address
system.cpu0.iew.lsq.thread0.memOrderViolation         7903                       # Number of memory ordering violations
system.cpu0.iew.lsq.thread0.rescheduledLoads      2448343                       # Number of loads that were rescheduled
system.cpu0.iew.lsq.thread0.squashedLoads     14654336                       # Number of loads squashed
system.cpu0.iew.lsq.thread0.squashedStores      5027841                       # Number of stores squashed
system.cpu0.iew.memOrderViolationEvents          7903                       # Number of memory order violations
system.cpu0.iew.predictedNotTakenIncorrect       797176                       # Number of branches that were predicted not taken incorrectly
system.cpu0.iew.predictedTakenIncorrect       3823171                       # Number of branches that were predicted taken incorrectly
system.cpu0.iew.wb_consumers                252479191                       # num instructions consuming a value
system.cpu0.iew.wb_count                    585819216                       # cumulative count of insts written-back
system.cpu0.iew.wb_fanout                    0.856257                       # average fanout of values written-back
system.cpu0.iew.wb_producers                216187182                       # num instructions producing a value
system.cpu0.iew.wb_rate                      0.474005                       # insts written-back per cycle
system.cpu0.iew.wb_sent                     585869078                       # cumulative count of insts sent to commit
system.cpu0.int_regfile_reads               721462998                       # number of integer regfile reads
system.cpu0.int_regfile_writes              374400255                       # number of integer regfile writes
system.cpu0.ipc                              0.454565                       # IPC: Instructions Per Cycle
system.cpu0.ipc_total                        0.454565                       # IPC: Total IPC of All Threads
system.cpu0.iq.FU_type_0::No_OpClass          1020979      0.17%      0.17% # Type of FU issued
system.cpu0.iq.FU_type_0::IntAlu            325188684     54.49%     54.66% # Type of FU issued
system.cpu0.iq.FU_type_0::IntMult             4145368      0.69%     55.36% # Type of FU issued
system.cpu0.iq.FU_type_0::IntDiv              1018418      0.17%     55.53% # Type of FU issued
system.cpu0.iq.FU_type_0::FloatAdd                  0      0.00%     55.53% # Type of FU issued
system.cpu0.iq.FU_type_0::FloatCmp                  4      0.00%     55.53% # Type of FU issued
system.cpu0.iq.FU_type_0::FloatCvt                 12      0.00%     55.53% # Type of FU issued
system.cpu0.iq.FU_type_0::FloatMult                 0      0.00%     55.53% # Type of FU issued
system.cpu0.iq.FU_type_0::FloatMultAcc              0      0.00%     55.53% # Type of FU issued
system.cpu0.iq.FU_type_0::FloatDiv                  2      0.00%     55.53% # Type of FU issued
system.cpu0.iq.FU_type_0::FloatMisc                 4      0.00%     55.53% # Type of FU issued
system.cpu0.iq.FU_type_0::FloatSqrt                 0      0.00%     55.53% # Type of FU issued
system.cpu0.iq.FU_type_0::SimdAdd                   0      0.00%     55.53% # Type of FU issued
system.cpu0.iq.FU_type_0::SimdAddAcc                0      0.00%     55.53% # Type of FU issued
system.cpu0.iq.FU_type_0::SimdAlu                   0      0.00%     55.53% # Type of FU issued
system.cpu0.iq.FU_type_0::SimdCmp                   0      0.00%     55.53% # Type of FU issued
system.cpu0.iq.FU_type_0::SimdCvt                   0      0.00%     55.53% # Type of FU issued
system.cpu0.iq.FU_type_0::SimdMisc                  0      0.00%     55.53% # Type of FU issued
system.cpu0.iq.FU_type_0::SimdMult                  0      0.00%     55.53% # Type of FU issued
system.cpu0.iq.FU_type_0::SimdMultAcc               0      0.00%     55.53% # Type of FU issued
system.cpu0.iq.FU_type_0::SimdShift                 0      0.00%     55.53% # Type of FU issued
system.cpu0.iq.FU_type_0::SimdShiftAcc              0      0.00%     55.53% # Type of FU issued
system.cpu0.iq.FU_type_0::SimdDiv                   0      0.00%     55.53% # Type of FU issued
system.cpu0.iq.FU_type_0::SimdSqrt                  0      0.00%     55.53% # Type of FU issued
system.cpu0.iq.FU_type_0::SimdFloatAdd              0      0.00%     55.53% # Type of FU issued
system.cpu0.iq.FU_type_0::SimdFloatAlu              0      0.00%     55.53% # Type of FU issued
system.cpu0.iq.FU_type_0::SimdFloatCmp              0      0.00%     55.53% # Type of FU issued
system.cpu0.iq.FU_type_0::SimdFloatCvt              0      0.00%     55.53% # Type of FU issued
system.cpu0.iq.FU_type_0::SimdFloatDiv              0      0.00%     55.53% # Type of FU issued
system.cpu0.iq.FU_type_0::SimdFloatMisc             0      0.00%     55.53% # Type of FU issued
system.cpu0.iq.FU_type_0::SimdFloatMult             0      0.00%     55.53% # Type of FU issued
system.cpu0.iq.FU_type_0::SimdFloatMultAcc            0      0.00%     55.53% # Type of FU issued
system.cpu0.iq.FU_type_0::SimdFloatSqrt             0      0.00%     55.53% # Type of FU issued
system.cpu0.iq.FU_type_0::SimdReduceAdd             0      0.00%     55.53% # Type of FU issued
system.cpu0.iq.FU_type_0::SimdReduceAlu             0      0.00%     55.53% # Type of FU issued
system.cpu0.iq.FU_type_0::SimdReduceCmp             0      0.00%     55.53% # Type of FU issued
system.cpu0.iq.FU_type_0::SimdFloatReduceAdd            0      0.00%     55.53% # Type of FU issued
system.cpu0.iq.FU_type_0::SimdFloatReduceCmp            0      0.00%     55.53% # Type of FU issued
system.cpu0.iq.FU_type_0::SimdAes                   0      0.00%     55.53% # Type of FU issued
system.cpu0.iq.FU_type_0::SimdAesMix                0      0.00%     55.53% # Type of FU issued
system.cpu0.iq.FU_type_0::SimdSha1Hash              0      0.00%     55.53% # Type of FU issued
system.cpu0.iq.FU_type_0::SimdSha1Hash2             0      0.00%     55.53% # Type of FU issued
system.cpu0.iq.FU_type_0::SimdSha256Hash            0      0.00%     55.53% # Type of FU issued
system.cpu0.iq.FU_type_0::SimdSha256Hash2            0      0.00%     55.53% # Type of FU issued
system.cpu0.iq.FU_type_0::SimdShaSigma2             0      0.00%     55.53% # Type of FU issued
system.cpu0.iq.FU_type_0::SimdShaSigma3             0      0.00%     55.53% # Type of FU issued
system.cpu0.iq.FU_type_0::SimdPredAlu               0      0.00%     55.53% # Type of FU issued
system.cpu0.iq.FU_type_0::MemRead           191346901     32.06%     87.59% # Type of FU issued
system.cpu0.iq.FU_type_0::MemWrite           74063792     12.41%    100.00% # Type of FU issued
system.cpu0.iq.FU_type_0::FloatMemRead              8      0.00%    100.00% # Type of FU issued
system.cpu0.iq.FU_type_0::FloatMemWrite            16      0.00%    100.00% # Type of FU issued
system.cpu0.iq.FU_type_0::IprAccess                 0      0.00%    100.00% # Type of FU issued
system.cpu0.iq.FU_type_0::InstPrefetch              0      0.00%    100.00% # Type of FU issued
system.cpu0.iq.FU_type_0::total             596784188                       # Type of FU issued
system.cpu0.iq.fp_alu_accesses                     48                       # Number of floating point alu accesses
system.cpu0.iq.fp_inst_queue_reads                 94                       # Number of floating instruction queue reads
system.cpu0.iq.fp_inst_queue_wakeup_accesses           46                       # Number of floating instruction queue wakeup accesses
system.cpu0.iq.fp_inst_queue_writes                46                       # Number of floating instruction queue writes
system.cpu0.iq.fu_busy_cnt                    2023431                       # FU busy when requested
system.cpu0.iq.fu_busy_rate                  0.003391                       # FU busy rate (busy events/executed inst)
system.cpu0.iq.fu_full::No_OpClass                  0      0.00%      0.00% # attempts to use FU when none available
system.cpu0.iq.fu_full::IntAlu                 171764      8.49%      8.49% # attempts to use FU when none available
system.cpu0.iq.fu_full::IntMult                     0      0.00%      8.49% # attempts to use FU when none available
system.cpu0.iq.fu_full::IntDiv                      0      0.00%      8.49% # attempts to use FU when none available
system.cpu0.iq.fu_full::FloatAdd                    0      0.00%      8.49% # attempts to use FU when none available
system.cpu0.iq.fu_full::FloatCmp                    0      0.00%      8.49% # attempts to use FU when none available
system.cpu0.iq.fu_full::FloatCvt                    0      0.00%      8.49% # attempts to use FU when none available
system.cpu0.iq.fu_full::FloatMult                   0      0.00%      8.49% # attempts to use FU when none available
system.cpu0.iq.fu_full::FloatMultAcc                0      0.00%      8.49% # attempts to use FU when none available
system.cpu0.iq.fu_full::FloatDiv                    0      0.00%      8.49% # attempts to use FU when none available
system.cpu0.iq.fu_full::FloatMisc                   0      0.00%      8.49% # attempts to use FU when none available
system.cpu0.iq.fu_full::FloatSqrt                   0      0.00%      8.49% # attempts to use FU when none available
system.cpu0.iq.fu_full::SimdAdd                     0      0.00%      8.49% # attempts to use FU when none available
system.cpu0.iq.fu_full::SimdAddAcc                  0      0.00%      8.49% # attempts to use FU when none available
system.cpu0.iq.fu_full::SimdAlu                     0      0.00%      8.49% # attempts to use FU when none available
system.cpu0.iq.fu_full::SimdCmp                     0      0.00%      8.49% # attempts to use FU when none available
system.cpu0.iq.fu_full::SimdCvt                     0      0.00%      8.49% # attempts to use FU when none available
system.cpu0.iq.fu_full::SimdMisc                    0      0.00%      8.49% # attempts to use FU when none available
system.cpu0.iq.fu_full::SimdMult                    0      0.00%      8.49% # attempts to use FU when none available
system.cpu0.iq.fu_full::SimdMultAcc                 0      0.00%      8.49% # attempts to use FU when none available
system.cpu0.iq.fu_full::SimdShift                   0      0.00%      8.49% # attempts to use FU when none available
system.cpu0.iq.fu_full::SimdShiftAcc                0      0.00%      8.49% # attempts to use FU when none available
system.cpu0.iq.fu_full::SimdDiv                     0      0.00%      8.49% # attempts to use FU when none available
system.cpu0.iq.fu_full::SimdSqrt                    0      0.00%      8.49% # attempts to use FU when none available
system.cpu0.iq.fu_full::SimdFloatAdd                0      0.00%      8.49% # attempts to use FU when none available
system.cpu0.iq.fu_full::SimdFloatAlu                0      0.00%      8.49% # attempts to use FU when none available
system.cpu0.iq.fu_full::SimdFloatCmp                0      0.00%      8.49% # attempts to use FU when none available
system.cpu0.iq.fu_full::SimdFloatCvt                0      0.00%      8.49% # attempts to use FU when none available
system.cpu0.iq.fu_full::SimdFloatDiv                0      0.00%      8.49% # attempts to use FU when none available
system.cpu0.iq.fu_full::SimdFloatMisc               0      0.00%      8.49% # attempts to use FU when none available
system.cpu0.iq.fu_full::SimdFloatMult               0      0.00%      8.49% # attempts to use FU when none available
system.cpu0.iq.fu_full::SimdFloatMultAcc            0      0.00%      8.49% # attempts to use FU when none available
system.cpu0.iq.fu_full::SimdFloatSqrt               0      0.00%      8.49% # attempts to use FU when none available
system.cpu0.iq.fu_full::SimdReduceAdd               0      0.00%      8.49% # attempts to use FU when none available
system.cpu0.iq.fu_full::SimdReduceAlu               0      0.00%      8.49% # attempts to use FU when none available
system.cpu0.iq.fu_full::SimdReduceCmp               0      0.00%      8.49% # attempts to use FU when none available
system.cpu0.iq.fu_full::SimdFloatReduceAdd            0      0.00%      8.49% # attempts to use FU when none available
system.cpu0.iq.fu_full::SimdFloatReduceCmp            0      0.00%      8.49% # attempts to use FU when none available
system.cpu0.iq.fu_full::SimdAes                     0      0.00%      8.49% # attempts to use FU when none available
system.cpu0.iq.fu_full::SimdAesMix                  0      0.00%      8.49% # attempts to use FU when none available
system.cpu0.iq.fu_full::SimdSha1Hash                0      0.00%      8.49% # attempts to use FU when none available
system.cpu0.iq.fu_full::SimdSha1Hash2               0      0.00%      8.49% # attempts to use FU when none available
system.cpu0.iq.fu_full::SimdSha256Hash              0      0.00%      8.49% # attempts to use FU when none available
system.cpu0.iq.fu_full::SimdSha256Hash2             0      0.00%      8.49% # attempts to use FU when none available
system.cpu0.iq.fu_full::SimdShaSigma2               0      0.00%      8.49% # attempts to use FU when none available
system.cpu0.iq.fu_full::SimdShaSigma3               0      0.00%      8.49% # attempts to use FU when none available
system.cpu0.iq.fu_full::SimdPredAlu                 0      0.00%      8.49% # attempts to use FU when none available
system.cpu0.iq.fu_full::MemRead               1731784     85.59%     94.08% # attempts to use FU when none available
system.cpu0.iq.fu_full::MemWrite               119881      5.92%    100.00% # attempts to use FU when none available
system.cpu0.iq.fu_full::FloatMemRead                0      0.00%    100.00% # attempts to use FU when none available
system.cpu0.iq.fu_full::FloatMemWrite               2      0.00%    100.00% # attempts to use FU when none available
system.cpu0.iq.fu_full::IprAccess                   0      0.00%    100.00% # attempts to use FU when none available
system.cpu0.iq.fu_full::InstPrefetch                0      0.00%    100.00% # attempts to use FU when none available
system.cpu0.iq.int_alu_accesses             597786592                       # Number of integer alu accesses
system.cpu0.iq.int_inst_queue_reads        2208933823                       # Number of integer instruction queue reads
system.cpu0.iq.int_inst_queue_wakeup_accesses    585819170                       # Number of integer instruction queue wakeup accesses
system.cpu0.iq.int_inst_queue_writes        637428805                       # Number of integer instruction queue writes
system.cpu0.iq.iqInstsAdded                 598330129                       # Number of instructions added to the IQ (excludes non-spec)
system.cpu0.iq.iqInstsIssued                596784188                       # Number of instructions issued
system.cpu0.iq.iqNonSpecInstsAdded            1532804                       # Number of non-speculative instructions added to the IQ
system.cpu0.iq.iqSquashedInstsExamined       37558793                       # Number of squashed instructions iterated over during squash; mainly for profiling
system.cpu0.iq.iqSquashedInstsIssued            69188                       # Number of squashed instructions issued
system.cpu0.iq.iqSquashedNonSpecRemoved           419                       # Number of squashed non-spec instructions that were removed
system.cpu0.iq.iqSquashedOperandsExamined     15745145                       # Number of squashed operands that are examined and possibly removed from graph
system.cpu0.iq.issued_per_cycle::samples   1013272923                       # Number of insts issued each cycle
system.cpu0.iq.issued_per_cycle::mean        0.588967                       # Number of insts issued each cycle
system.cpu0.iq.issued_per_cycle::stdev       0.844261                       # Number of insts issued each cycle
system.cpu0.iq.issued_per_cycle::underflows            0      0.00%      0.00% # Number of insts issued each cycle
system.cpu0.iq.issued_per_cycle::0          587286136     57.96%     57.96% # Number of insts issued each cycle
system.cpu0.iq.issued_per_cycle::1          296879827     29.30%     87.26% # Number of insts issued each cycle
system.cpu0.iq.issued_per_cycle::2          102753718     10.14%     97.40% # Number of insts issued each cycle
system.cpu0.iq.issued_per_cycle::3           17556669      1.73%     99.13% # Number of insts issued each cycle
system.cpu0.iq.issued_per_cycle::4            5515845      0.54%     99.68% # Number of insts issued each cycle
system.cpu0.iq.issued_per_cycle::5             788965      0.08%     99.75% # Number of insts issued each cycle
system.cpu0.iq.issued_per_cycle::6            1799662      0.18%     99.93% # Number of insts issued each cycle
system.cpu0.iq.issued_per_cycle::7             616067      0.06%     99.99% # Number of insts issued each cycle
system.cpu0.iq.issued_per_cycle::8              76034      0.01%    100.00% # Number of insts issued each cycle
system.cpu0.iq.issued_per_cycle::overflows            0      0.00%    100.00% # Number of insts issued each cycle
system.cpu0.iq.issued_per_cycle::min_value            0                       # Number of insts issued each cycle
system.cpu0.iq.issued_per_cycle::max_value            8                       # Number of insts issued each cycle
system.cpu0.iq.issued_per_cycle::total     1013272923                       # Number of insts issued each cycle
system.cpu0.iq.rate                          0.482877                       # Inst issue rate
system.cpu0.iq.vec_alu_accesses                     0                       # Number of vector alu accesses
system.cpu0.iq.vec_inst_queue_reads                 0                       # Number of vector instruction queue reads
system.cpu0.iq.vec_inst_queue_wakeup_accesses            0                       # Number of vector instruction queue wakeup accesses
system.cpu0.iq.vec_inst_queue_writes                0                       # Number of vector instruction queue writes
system.cpu0.itb.accesses                            0                       # DTB accesses
system.cpu0.itb.hits                                0                       # DTB hits
system.cpu0.itb.misses                              0                       # DTB misses
system.cpu0.itb.read_accesses                       0                       # DTB read accesses
system.cpu0.itb.read_hits                           0                       # DTB read hits
system.cpu0.itb.read_misses                         0                       # DTB read misses
system.cpu0.itb.write_accesses                      0                       # DTB write accesses
system.cpu0.itb.write_hits                          0                       # DTB write hits
system.cpu0.itb.write_misses                        0                       # DTB write misses
system.cpu0.memDep0.conflictingLoads          9610092                       # Number of conflicting loads.
system.cpu0.memDep0.conflictingStores         2071139                       # Number of conflicting stores.
system.cpu0.memDep0.insertedLoads           189414600                       # Number of loads inserted to the mem dependence unit.
system.cpu0.memDep0.insertedStores           75352487                       # Number of stores inserted to the mem dependence unit.
system.cpu0.misc_regfile_reads                   1043                       # number of misc regfile reads
system.cpu0.misc_regfile_writes                    22                       # number of misc regfile writes
system.cpu0.numCycles                      1235893524                       # number of cpu cycles simulated
system.cpu0.numWorkItemsCompleted                   0                       # number of work items this cpu completed
system.cpu0.numWorkItemsStarted                     0                       # number of work items this cpu started
system.cpu0.quiesceCycles                    12575357                       # Total number of cycles that CPU has spent quiesced or waiting for an interrupt
system.cpu0.rename.BlockCycles              136921384                       # Number of cycles rename is blocking
system.cpu0.rename.CommittedMaps            357817289                       # Number of HB maps that are committed
system.cpu0.rename.IQFullEvents               4110888                       # Number of times rename has blocked due to IQ full
system.cpu0.rename.IdleCycles               426779968                       # Number of cycles rename is idle
system.cpu0.rename.LQFullEvents              19372110                       # Number of times rename has blocked due to LQ full
system.cpu0.rename.ROBFullEvents                10013                       # Number of times rename has blocked due to ROB full
system.cpu0.rename.RenameLookups            740869080                       # Number of register rename lookups that rename has made
system.cpu0.rename.RenamedInsts             606673797                       # Number of instructions processed by rename
system.cpu0.rename.RenamedOperands          388147653                       # Number of destination operands rename has renamed
system.cpu0.rename.RunCycles                412251009                       # Number of cycles rename is running
system.cpu0.rename.SQFullEvents               9246912                       # Number of times rename has blocked due to SQ full
system.cpu0.rename.SquashCycles               4569998                       # Number of cycles rename is squashing
system.cpu0.rename.UnblockCycles             32643771                       # Number of cycles rename is unblocking
system.cpu0.rename.UndoneMaps                30330356                       # Number of HB maps that are undone due to squashing
system.cpu0.rename.fp_rename_lookups               40                       # Number of floating rename lookups
system.cpu0.rename.int_rename_lookups       740869040                       # Number of integer rename lookups
system.cpu0.rename.serializeStallCycles        106793                       # count of cycles rename stalled for serializing inst
system.cpu0.rename.serializingInsts              3244                       # count of serializing insts renamed
system.cpu0.rename.skidInsts                 11719093                       # count of insts added to the skid buffer
system.cpu0.rename.tempSerializingInsts          3238                       # count of temporary serializing insts renamed
system.cpu0.rob.rob_reads                  1577543112                       # The number of ROB reads
system.cpu0.rob.rob_writes                 1207240518                       # The number of ROB writes
system.cpu0.timesIdled                       16530178                       # Number of times that the entire CPU went into an idle state and unscheduled itself
system.cpu0.workload.numSyscalls                 1010                       # Number of system calls
system.cpu1.branchPred.BTBCorrect                   0                       # Number of correct BTB predictions (this stat may not work properly.
system.cpu1.branchPred.BTBHitPct            79.383323                       # BTB Hit Percentage
system.cpu1.branchPred.BTBHits                4111583                       # Number of BTB hits
system.cpu1.branchPred.BTBLookups             5179404                       # Number of BTB lookups
system.cpu1.branchPred.RASInCorrect                 0                       # Number of incorrect RAS predictions.
system.cpu1.branchPred.condIncorrect          1016059                       # Number of conditional branches incorrect
system.cpu1.branchPred.condPredicted          7150588                       # Number of conditional branches predicted
system.cpu1.branchPred.indirectHits            138806                       # Number of indirect target hits.
system.cpu1.branchPred.indirectLookups         304278                       # Number of indirect predictor lookups.
system.cpu1.branchPred.indirectMisses          165472                       # Number of indirect misses.
system.cpu1.branchPred.lookups                8324466                       # Number of BP lookups
system.cpu1.branchPred.usedRAS                      0                       # Number of times the RAS was used to get a target.
system.cpu1.branchPredindirectMispredicted         8691                       # Number of mispredicted indirect branches.
system.cpu1.commit.amos                        509172                       # Number of atomic instructions committed
system.cpu1.commit.branchMispredicts           612641                       # The number of times a branch was mispredicted
system.cpu1.commit.branches                   4420751                       # Number of branches committed
system.cpu1.commit.bw_lim_events               521001                       # number cycles where commit BW limit reached
system.cpu1.commit.commitNonSpecStalls        1528218                       # The number of times commit has been forced to stall to communicate backwards
system.cpu1.commit.commitSquashedInsts       12291387                       # The number of squashed insts skipped by commit
system.cpu1.commit.committedInsts            19249308                       # Number of instructions committed
system.cpu1.commit.committedOps              19758693                       # Number of ops (including micro ops) committed
system.cpu1.commit.committed_per_cycle::samples    114163595                       # Number of insts commited each cycle
system.cpu1.commit.committed_per_cycle::mean     0.173074                       # Number of insts commited each cycle
system.cpu1.commit.committed_per_cycle::stdev     0.824318                       # Number of insts commited each cycle
system.cpu1.commit.committed_per_cycle::underflows            0      0.00%      0.00% # Number of insts commited each cycle
system.cpu1.commit.committed_per_cycle::0    105985659     92.84%     92.84% # Number of insts commited each cycle
system.cpu1.commit.committed_per_cycle::1      4038316      3.54%     96.37% # Number of insts commited each cycle
system.cpu1.commit.committed_per_cycle::2      1374707      1.20%     97.58% # Number of insts commited each cycle
system.cpu1.commit.committed_per_cycle::3      1298607      1.14%     98.72% # Number of insts commited each cycle
system.cpu1.commit.committed_per_cycle::4       357960      0.31%     99.03% # Number of insts commited each cycle
system.cpu1.commit.committed_per_cycle::5        93797      0.08%     99.11% # Number of insts commited each cycle
system.cpu1.commit.committed_per_cycle::6       448527      0.39%     99.50% # Number of insts commited each cycle
system.cpu1.commit.committed_per_cycle::7        45021      0.04%     99.54% # Number of insts commited each cycle
system.cpu1.commit.committed_per_cycle::8       521001      0.46%    100.00% # Number of insts commited each cycle
system.cpu1.commit.committed_per_cycle::overflows            0      0.00%    100.00% # Number of insts commited each cycle
system.cpu1.commit.committed_per_cycle::min_value            0                       # Number of insts commited each cycle
system.cpu1.commit.committed_per_cycle::max_value            8                       # Number of insts commited each cycle
system.cpu1.commit.committed_per_cycle::total    114163595                       # Number of insts commited each cycle
system.cpu1.commit.fp_insts                        12                       # Number of committed floating point instructions.
system.cpu1.commit.function_calls              227619                       # Number of function calls committed.
system.cpu1.commit.int_insts                 18557974                       # Number of committed integer instructions.
system.cpu1.commit.loads                      5321163                       # Number of loads committed
system.cpu1.commit.membars                    1018434                       # Number of memory barriers committed
system.cpu1.commit.op_class_0::No_OpClass      1018434      5.15%      5.15% # Class of committed instruction
system.cpu1.commit.op_class_0::IntAlu        11649592     58.96%     64.11% # Class of committed instruction
system.cpu1.commit.op_class_0::IntMult             42      0.00%     64.11% # Class of committed instruction
system.cpu1.commit.op_class_0::IntDiv              84      0.00%     64.11% # Class of committed instruction
system.cpu1.commit.op_class_0::FloatAdd             0      0.00%     64.11% # Class of committed instruction
system.cpu1.commit.op_class_0::FloatCmp             0      0.00%     64.11% # Class of committed instruction
system.cpu1.commit.op_class_0::FloatCvt             0      0.00%     64.11% # Class of committed instruction
system.cpu1.commit.op_class_0::FloatMult            0      0.00%     64.11% # Class of committed instruction
system.cpu1.commit.op_class_0::FloatMultAcc            0      0.00%     64.11% # Class of committed instruction
system.cpu1.commit.op_class_0::FloatDiv             0      0.00%     64.11% # Class of committed instruction
system.cpu1.commit.op_class_0::FloatMisc            0      0.00%     64.11% # Class of committed instruction
system.cpu1.commit.op_class_0::FloatSqrt            0      0.00%     64.11% # Class of committed instruction
system.cpu1.commit.op_class_0::SimdAdd              0      0.00%     64.11% # Class of committed instruction
system.cpu1.commit.op_class_0::SimdAddAcc            0      0.00%     64.11% # Class of committed instruction
system.cpu1.commit.op_class_0::SimdAlu              0      0.00%     64.11% # Class of committed instruction
system.cpu1.commit.op_class_0::SimdCmp              0      0.00%     64.11% # Class of committed instruction
system.cpu1.commit.op_class_0::SimdCvt              0      0.00%     64.11% # Class of committed instruction
system.cpu1.commit.op_class_0::SimdMisc             0      0.00%     64.11% # Class of committed instruction
system.cpu1.commit.op_class_0::SimdMult             0      0.00%     64.11% # Class of committed instruction
system.cpu1.commit.op_class_0::SimdMultAcc            0      0.00%     64.11% # Class of committed instruction
system.cpu1.commit.op_class_0::SimdShift            0      0.00%     64.11% # Class of committed instruction
system.cpu1.commit.op_class_0::SimdShiftAcc            0      0.00%     64.11% # Class of committed instruction
system.cpu1.commit.op_class_0::SimdDiv              0      0.00%     64.11% # Class of committed instruction
system.cpu1.commit.op_class_0::SimdSqrt             0      0.00%     64.11% # Class of committed instruction
system.cpu1.commit.op_class_0::SimdFloatAdd            0      0.00%     64.11% # Class of committed instruction
system.cpu1.commit.op_class_0::SimdFloatAlu            0      0.00%     64.11% # Class of committed instruction
system.cpu1.commit.op_class_0::SimdFloatCmp            0      0.00%     64.11% # Class of committed instruction
system.cpu1.commit.op_class_0::SimdFloatCvt            0      0.00%     64.11% # Class of committed instruction
system.cpu1.commit.op_class_0::SimdFloatDiv            0      0.00%     64.11% # Class of committed instruction
system.cpu1.commit.op_class_0::SimdFloatMisc            0      0.00%     64.11% # Class of committed instruction
system.cpu1.commit.op_class_0::SimdFloatMult            0      0.00%     64.11% # Class of committed instruction
system.cpu1.commit.op_class_0::SimdFloatMultAcc            0      0.00%     64.11% # Class of committed instruction
system.cpu1.commit.op_class_0::SimdFloatSqrt            0      0.00%     64.11% # Class of committed instruction
system.cpu1.commit.op_class_0::SimdReduceAdd            0      0.00%     64.11% # Class of committed instruction
system.cpu1.commit.op_class_0::SimdReduceAlu            0      0.00%     64.11% # Class of committed instruction
system.cpu1.commit.op_class_0::SimdReduceCmp            0      0.00%     64.11% # Class of committed instruction
system.cpu1.commit.op_class_0::SimdFloatReduceAdd            0      0.00%     64.11% # Class of committed instruction
system.cpu1.commit.op_class_0::SimdFloatReduceCmp            0      0.00%     64.11% # Class of committed instruction
system.cpu1.commit.op_class_0::SimdAes              0      0.00%     64.11% # Class of committed instruction
system.cpu1.commit.op_class_0::SimdAesMix            0      0.00%     64.11% # Class of committed instruction
system.cpu1.commit.op_class_0::SimdSha1Hash            0      0.00%     64.11% # Class of committed instruction
system.cpu1.commit.op_class_0::SimdSha1Hash2            0      0.00%     64.11% # Class of committed instruction
system.cpu1.commit.op_class_0::SimdSha256Hash            0      0.00%     64.11% # Class of committed instruction
system.cpu1.commit.op_class_0::SimdSha256Hash2            0      0.00%     64.11% # Class of committed instruction
system.cpu1.commit.op_class_0::SimdShaSigma2            0      0.00%     64.11% # Class of committed instruction
system.cpu1.commit.op_class_0::SimdShaSigma3            0      0.00%     64.11% # Class of committed instruction
system.cpu1.commit.op_class_0::SimdPredAlu            0      0.00%     64.11% # Class of committed instruction
system.cpu1.commit.op_class_0::MemRead        5830335     29.51%     93.62% # Class of committed instruction
system.cpu1.commit.op_class_0::MemWrite       1260194      6.38%    100.00% # Class of committed instruction
system.cpu1.commit.op_class_0::FloatMemRead            0      0.00%    100.00% # Class of committed instruction
system.cpu1.commit.op_class_0::FloatMemWrite           12      0.00%    100.00% # Class of committed instruction
system.cpu1.commit.op_class_0::IprAccess            0      0.00%    100.00% # Class of committed instruction
system.cpu1.commit.op_class_0::InstPrefetch            0      0.00%    100.00% # Class of committed instruction
system.cpu1.commit.op_class_0::total         19758693                       # Class of committed instruction
system.cpu1.commit.refs                       7090541                       # Number of memory references committed
system.cpu1.commit.swp_count                        0                       # Number of s/w prefetches committed
system.cpu1.commit.vec_insts                        0                       # Number of committed Vector instructions.
system.cpu1.committedInsts                   19249308                       # Number of Instructions Simulated
system.cpu1.committedOps                     19758693                       # Number of Ops (including micro ops) Simulated
system.cpu1.cpi                              6.059329                       # CPI: Cycles Per Instruction
system.cpu1.cpi_total                        6.059329                       # CPI: Total CPI of All Threads
system.cpu1.decode.BlockedCycles             93101631                       # Number of cycles decode is blocked
system.cpu1.decode.BranchMispred               411731                       # Number of times decode detected a branch misprediction
system.cpu1.decode.BranchResolved             3771353                       # Number of times decode resolved a branch
system.cpu1.decode.DecodedInsts              35052600                       # Number of instructions handled by decode
system.cpu1.decode.IdleCycles                 6401860                       # Number of cycles decode is idle
system.cpu1.decode.RunCycles                 14861450                       # Number of cycles decode is running
system.cpu1.decode.SquashCycles                613082                       # Number of cycles decode is squashing
system.cpu1.decode.SquashedInsts               564219                       # Number of squashed instructions handled by decode
system.cpu1.decode.UnblockCycles              1186639                       # Number of cycles decode is unblocking
system.cpu1.dtb.accesses                            0                       # DTB accesses
system.cpu1.dtb.hits                                0                       # DTB hits
system.cpu1.dtb.misses                              0                       # DTB misses
system.cpu1.dtb.read_accesses                       0                       # DTB read accesses
system.cpu1.dtb.read_hits                           0                       # DTB read hits
system.cpu1.dtb.read_misses                         0                       # DTB read misses
system.cpu1.dtb.write_accesses                      0                       # DTB write accesses
system.cpu1.dtb.write_hits                          0                       # DTB write hits
system.cpu1.dtb.write_misses                        0                       # DTB write misses
system.cpu1.fetch.Branches                    8324466                       # Number of branches that fetch encountered
system.cpu1.fetch.CacheLines                  5825226                       # Number of cache lines fetched
system.cpu1.fetch.Cycles                    108665975                       # Number of cycles fetch has run and was not squashing or blocked
system.cpu1.fetch.IcacheSquashes               281792                       # Number of outstanding Icache misses that were squashed
system.cpu1.fetch.IcacheWaitRetryStallCycles           12                       # Number of stall cycles due to full MSHR
system.cpu1.fetch.Insts                      40691729                       # Number of instructions fetch has processed
system.cpu1.fetch.MiscStallCycles                   2                       # Number of cycles fetch has spent waiting on interrupts, or bad addresses, or out of MSHRs
system.cpu1.fetch.SquashCycles                2033000                       # Number of cycles fetch has spent squashing
system.cpu1.fetch.branchRate                 0.071370                       # Number of branch fetches per cycle
system.cpu1.fetch.icacheStallCycles           6482173                       # Number of cycles fetch is stalled on an Icache miss
system.cpu1.fetch.predictedBranches           4250389                       # Number of branches that fetch has predicted taken
system.cpu1.fetch.rate                       0.348872                       # Number of inst fetches per cycle
system.cpu1.fetch.rateDist::samples         116164662                       # Number of instructions fetched each cycle (Total)
system.cpu1.fetch.rateDist::mean             0.365079                       # Number of instructions fetched each cycle (Total)
system.cpu1.fetch.rateDist::stdev            0.867010                       # Number of instructions fetched each cycle (Total)
system.cpu1.fetch.rateDist::underflows              0      0.00%      0.00% # Number of instructions fetched each cycle (Total)
system.cpu1.fetch.rateDist::0                91731162     78.97%     78.97% # Number of instructions fetched each cycle (Total)
system.cpu1.fetch.rateDist::1                13789720     11.87%     90.84% # Number of instructions fetched each cycle (Total)
system.cpu1.fetch.rateDist::2                 6535332      5.63%     96.46% # Number of instructions fetched each cycle (Total)
system.cpu1.fetch.rateDist::3                 2103760      1.81%     98.27% # Number of instructions fetched each cycle (Total)
system.cpu1.fetch.rateDist::4                 1231460      1.06%     99.33% # Number of instructions fetched each cycle (Total)
system.cpu1.fetch.rateDist::5                  329095      0.28%     99.62% # Number of instructions fetched each cycle (Total)
system.cpu1.fetch.rateDist::6                  443238      0.38%    100.00% # Number of instructions fetched each cycle (Total)
system.cpu1.fetch.rateDist::7                     331      0.00%    100.00% # Number of instructions fetched each cycle (Total)
system.cpu1.fetch.rateDist::8                     564      0.00%    100.00% # Number of instructions fetched each cycle (Total)
system.cpu1.fetch.rateDist::overflows               0      0.00%    100.00% # Number of instructions fetched each cycle (Total)
system.cpu1.fetch.rateDist::min_value               0                       # Number of instructions fetched each cycle (Total)
system.cpu1.fetch.rateDist::max_value               8                       # Number of instructions fetched each cycle (Total)
system.cpu1.fetch.rateDist::total           116164662                       # Number of instructions fetched each cycle (Total)
system.cpu1.fp_regfile_reads                       12                       # number of floating regfile reads
system.cpu1.idleCycles                         473237                       # Total number of cycles that the CPU has spent unscheduled due to idling
system.cpu1.iew.branchMispredicts              633071                       # Number of branch mispredicts detected at execute
system.cpu1.iew.exec_branches                 5692125                       # Number of branches executed
system.cpu1.iew.exec_nop                            0                       # number of nop insts executed
system.cpu1.iew.exec_rate                    0.199054                       # Inst execution rate
system.cpu1.iew.exec_refs                     7807499                       # number of memory reference insts executed
system.cpu1.iew.exec_stores                   1863903                       # Number of stores executed
system.cpu1.iew.exec_swp                            0                       # number of swp insts executed
system.cpu1.iew.iewBlockCycles               79890184                       # Number of cycles IEW is blocking
system.cpu1.iew.iewDispLoadInsts              8940228                       # Number of dispatched load instructions
system.cpu1.iew.iewDispNonSpecInsts           1108933                       # Number of dispatched non-speculative instructions
system.cpu1.iew.iewDispSquashedInsts           373813                       # Number of squashed instructions skipped by dispatch
system.cpu1.iew.iewDispStoreInsts             3107819                       # Number of dispatched store instructions
system.cpu1.iew.iewDispatchedInsts           32042766                       # Number of instructions dispatched to IQ
system.cpu1.iew.iewExecLoadInsts              5943596                       # Number of load instructions executed
system.cpu1.iew.iewExecSquashedInsts           292617                       # Number of squashed instructions skipped in execute
system.cpu1.iew.iewExecutedInsts             23217225                       # Number of executed instructions
system.cpu1.iew.iewIQFullEvents                562714                       # Number of times the IQ has become full, causing a stall
system.cpu1.iew.iewIdleCycles                       0                       # Number of cycles IEW is idle
system.cpu1.iew.iewLSQFullEvents               929442                       # Number of times the LSQ has become full, causing a stall
system.cpu1.iew.iewSquashCycles                613082                       # Number of cycles IEW is squashing
system.cpu1.iew.iewUnblockCycles              2068644                       # Number of cycles IEW is unblocking
system.cpu1.iew.lsq.thread0.blockedLoads            0                       # Number of blocked loads due to partial load-store forwarding
system.cpu1.iew.lsq.thread0.cacheBlocked        21063                       # Number of times an access to memory failed due to the cache being blocked
system.cpu1.iew.lsq.thread0.forwLoads          137025                       # Number of loads that had data forwarded from stores
system.cpu1.iew.lsq.thread0.ignoredResponses         4688                       # Number of memory responses ignored because the instruction is squashed
system.cpu1.iew.lsq.thread0.invAddrLoads            0                       # Number of loads ignored due to an invalid address
system.cpu1.iew.lsq.thread0.invAddrSwpfs            0                       # Number of software prefetches ignored due to an invalid address
system.cpu1.iew.lsq.thread0.memOrderViolation          445                       # Number of memory ordering violations
system.cpu1.iew.lsq.thread0.rescheduledLoads         1364                       # Number of loads that were rescheduled
system.cpu1.iew.lsq.thread0.squashedLoads      3619065                       # Number of loads squashed
system.cpu1.iew.lsq.thread0.squashedStores      1338441                       # Number of stores squashed
system.cpu1.iew.memOrderViolationEvents           445                       # Number of memory order violations
system.cpu1.iew.predictedNotTakenIncorrect       141694                       # Number of branches that were predicted not taken incorrectly
system.cpu1.iew.predictedTakenIncorrect        491377                       # Number of branches that were predicted taken incorrectly
system.cpu1.iew.wb_consumers                 12902131                       # num instructions consuming a value
system.cpu1.iew.wb_count                     22921015                       # cumulative count of insts written-back
system.cpu1.iew.wb_fanout                    0.824643                       # average fanout of values written-back
system.cpu1.iew.wb_producers                 10639648                       # num instructions producing a value
system.cpu1.iew.wb_rate                      0.196514                       # insts written-back per cycle
system.cpu1.iew.wb_sent                      22928746                       # cumulative count of insts sent to commit
system.cpu1.int_regfile_reads                29292952                       # number of integer regfile reads
system.cpu1.int_regfile_writes               14991316                       # number of integer regfile writes
system.cpu1.ipc                              0.165035                       # IPC: Instructions Per Cycle
system.cpu1.ipc_total                        0.165035                       # IPC: Total IPC of All Threads
system.cpu1.iq.FU_type_0::No_OpClass          1018636      4.33%      4.33% # Type of FU issued
system.cpu1.iq.FU_type_0::IntAlu             14599878     62.10%     66.43% # Type of FU issued
system.cpu1.iq.FU_type_0::IntMult                  50      0.00%     66.43% # Type of FU issued
system.cpu1.iq.FU_type_0::IntDiv                   84      0.00%     66.43% # Type of FU issued
system.cpu1.iq.FU_type_0::FloatAdd                  0      0.00%     66.43% # Type of FU issued
system.cpu1.iq.FU_type_0::FloatCmp                  0      0.00%     66.43% # Type of FU issued
system.cpu1.iq.FU_type_0::FloatCvt                  0      0.00%     66.43% # Type of FU issued
system.cpu1.iq.FU_type_0::FloatMult                 0      0.00%     66.43% # Type of FU issued
system.cpu1.iq.FU_type_0::FloatMultAcc              0      0.00%     66.43% # Type of FU issued
system.cpu1.iq.FU_type_0::FloatDiv                  0      0.00%     66.43% # Type of FU issued
system.cpu1.iq.FU_type_0::FloatMisc                 0      0.00%     66.43% # Type of FU issued
system.cpu1.iq.FU_type_0::FloatSqrt                 0      0.00%     66.43% # Type of FU issued
system.cpu1.iq.FU_type_0::SimdAdd                   0      0.00%     66.43% # Type of FU issued
system.cpu1.iq.FU_type_0::SimdAddAcc                0      0.00%     66.43% # Type of FU issued
system.cpu1.iq.FU_type_0::SimdAlu                   0      0.00%     66.43% # Type of FU issued
system.cpu1.iq.FU_type_0::SimdCmp                   0      0.00%     66.43% # Type of FU issued
system.cpu1.iq.FU_type_0::SimdCvt                   0      0.00%     66.43% # Type of FU issued
system.cpu1.iq.FU_type_0::SimdMisc                  0      0.00%     66.43% # Type of FU issued
system.cpu1.iq.FU_type_0::SimdMult                  0      0.00%     66.43% # Type of FU issued
system.cpu1.iq.FU_type_0::SimdMultAcc               0      0.00%     66.43% # Type of FU issued
system.cpu1.iq.FU_type_0::SimdShift                 0      0.00%     66.43% # Type of FU issued
system.cpu1.iq.FU_type_0::SimdShiftAcc              0      0.00%     66.43% # Type of FU issued
system.cpu1.iq.FU_type_0::SimdDiv                   0      0.00%     66.43% # Type of FU issued
system.cpu1.iq.FU_type_0::SimdSqrt                  0      0.00%     66.43% # Type of FU issued
system.cpu1.iq.FU_type_0::SimdFloatAdd              0      0.00%     66.43% # Type of FU issued
system.cpu1.iq.FU_type_0::SimdFloatAlu              0      0.00%     66.43% # Type of FU issued
system.cpu1.iq.FU_type_0::SimdFloatCmp              0      0.00%     66.43% # Type of FU issued
system.cpu1.iq.FU_type_0::SimdFloatCvt              0      0.00%     66.43% # Type of FU issued
system.cpu1.iq.FU_type_0::SimdFloatDiv              0      0.00%     66.43% # Type of FU issued
system.cpu1.iq.FU_type_0::SimdFloatMisc             0      0.00%     66.43% # Type of FU issued
system.cpu1.iq.FU_type_0::SimdFloatMult             0      0.00%     66.43% # Type of FU issued
system.cpu1.iq.FU_type_0::SimdFloatMultAcc            0      0.00%     66.43% # Type of FU issued
system.cpu1.iq.FU_type_0::SimdFloatSqrt             0      0.00%     66.43% # Type of FU issued
system.cpu1.iq.FU_type_0::SimdReduceAdd             0      0.00%     66.43% # Type of FU issued
system.cpu1.iq.FU_type_0::SimdReduceAlu             0      0.00%     66.43% # Type of FU issued
system.cpu1.iq.FU_type_0::SimdReduceCmp             0      0.00%     66.43% # Type of FU issued
system.cpu1.iq.FU_type_0::SimdFloatReduceAdd            0      0.00%     66.43% # Type of FU issued
system.cpu1.iq.FU_type_0::SimdFloatReduceCmp            0      0.00%     66.43% # Type of FU issued
system.cpu1.iq.FU_type_0::SimdAes                   0      0.00%     66.43% # Type of FU issued
system.cpu1.iq.FU_type_0::SimdAesMix                0      0.00%     66.43% # Type of FU issued
system.cpu1.iq.FU_type_0::SimdSha1Hash              0      0.00%     66.43% # Type of FU issued
system.cpu1.iq.FU_type_0::SimdSha1Hash2             0      0.00%     66.43% # Type of FU issued
system.cpu1.iq.FU_type_0::SimdSha256Hash            0      0.00%     66.43% # Type of FU issued
system.cpu1.iq.FU_type_0::SimdSha256Hash2            0      0.00%     66.43% # Type of FU issued
system.cpu1.iq.FU_type_0::SimdShaSigma2             0      0.00%     66.43% # Type of FU issued
system.cpu1.iq.FU_type_0::SimdShaSigma3             0      0.00%     66.43% # Type of FU issued
system.cpu1.iq.FU_type_0::SimdPredAlu               0      0.00%     66.43% # Type of FU issued
system.cpu1.iq.FU_type_0::MemRead             6519761     27.73%     94.17% # Type of FU issued
system.cpu1.iq.FU_type_0::MemWrite            1371421      5.83%    100.00% # Type of FU issued
system.cpu1.iq.FU_type_0::FloatMemRead              0      0.00%    100.00% # Type of FU issued
system.cpu1.iq.FU_type_0::FloatMemWrite            12      0.00%    100.00% # Type of FU issued
system.cpu1.iq.FU_type_0::IprAccess                 0      0.00%    100.00% # Type of FU issued
system.cpu1.iq.FU_type_0::InstPrefetch              0      0.00%    100.00% # Type of FU issued
system.cpu1.iq.FU_type_0::total              23509842                       # Type of FU issued
system.cpu1.iq.fp_alu_accesses                     14                       # Number of floating point alu accesses
system.cpu1.iq.fp_inst_queue_reads                 26                       # Number of floating instruction queue reads
system.cpu1.iq.fp_inst_queue_wakeup_accesses           12                       # Number of floating instruction queue wakeup accesses
system.cpu1.iq.fp_inst_queue_writes                12                       # Number of floating instruction queue writes
system.cpu1.iq.fu_busy_cnt                     602794                       # FU busy when requested
system.cpu1.iq.fu_busy_rate                  0.025640                       # FU busy rate (busy events/executed inst)
system.cpu1.iq.fu_full::No_OpClass                  0      0.00%      0.00% # attempts to use FU when none available
system.cpu1.iq.fu_full::IntAlu                 128846     21.37%     21.37% # attempts to use FU when none available
system.cpu1.iq.fu_full::IntMult                     0      0.00%     21.37% # attempts to use FU when none available
system.cpu1.iq.fu_full::IntDiv                      0      0.00%     21.37% # attempts to use FU when none available
system.cpu1.iq.fu_full::FloatAdd                    0      0.00%     21.37% # attempts to use FU when none available
system.cpu1.iq.fu_full::FloatCmp                    0      0.00%     21.37% # attempts to use FU when none available
system.cpu1.iq.fu_full::FloatCvt                    0      0.00%     21.37% # attempts to use FU when none available
system.cpu1.iq.fu_full::FloatMult                   0      0.00%     21.37% # attempts to use FU when none available
system.cpu1.iq.fu_full::FloatMultAcc                0      0.00%     21.37% # attempts to use FU when none available
system.cpu1.iq.fu_full::FloatDiv                    0      0.00%     21.37% # attempts to use FU when none available
system.cpu1.iq.fu_full::FloatMisc                   0      0.00%     21.37% # attempts to use FU when none available
system.cpu1.iq.fu_full::FloatSqrt                   0      0.00%     21.37% # attempts to use FU when none available
system.cpu1.iq.fu_full::SimdAdd                     0      0.00%     21.37% # attempts to use FU when none available
system.cpu1.iq.fu_full::SimdAddAcc                  0      0.00%     21.37% # attempts to use FU when none available
system.cpu1.iq.fu_full::SimdAlu                     0      0.00%     21.37% # attempts to use FU when none available
system.cpu1.iq.fu_full::SimdCmp                     0      0.00%     21.37% # attempts to use FU when none available
system.cpu1.iq.fu_full::SimdCvt                     0      0.00%     21.37% # attempts to use FU when none available
system.cpu1.iq.fu_full::SimdMisc                    0      0.00%     21.37% # attempts to use FU when none available
system.cpu1.iq.fu_full::SimdMult                    0      0.00%     21.37% # attempts to use FU when none available
system.cpu1.iq.fu_full::SimdMultAcc                 0      0.00%     21.37% # attempts to use FU when none available
system.cpu1.iq.fu_full::SimdShift                   0      0.00%     21.37% # attempts to use FU when none available
system.cpu1.iq.fu_full::SimdShiftAcc                0      0.00%     21.37% # attempts to use FU when none available
system.cpu1.iq.fu_full::SimdDiv                     0      0.00%     21.37% # attempts to use FU when none available
system.cpu1.iq.fu_full::SimdSqrt                    0      0.00%     21.37% # attempts to use FU when none available
system.cpu1.iq.fu_full::SimdFloatAdd                0      0.00%     21.37% # attempts to use FU when none available
system.cpu1.iq.fu_full::SimdFloatAlu                0      0.00%     21.37% # attempts to use FU when none available
system.cpu1.iq.fu_full::SimdFloatCmp                0      0.00%     21.37% # attempts to use FU when none available
system.cpu1.iq.fu_full::SimdFloatCvt                0      0.00%     21.37% # attempts to use FU when none available
system.cpu1.iq.fu_full::SimdFloatDiv                0      0.00%     21.37% # attempts to use FU when none available
system.cpu1.iq.fu_full::SimdFloatMisc               0      0.00%     21.37% # attempts to use FU when none available
system.cpu1.iq.fu_full::SimdFloatMult               0      0.00%     21.37% # attempts to use FU when none available
system.cpu1.iq.fu_full::SimdFloatMultAcc            0      0.00%     21.37% # attempts to use FU when none available
system.cpu1.iq.fu_full::SimdFloatSqrt               0      0.00%     21.37% # attempts to use FU when none available
system.cpu1.iq.fu_full::SimdReduceAdd               0      0.00%     21.37% # attempts to use FU when none available
system.cpu1.iq.fu_full::SimdReduceAlu               0      0.00%     21.37% # attempts to use FU when none available
system.cpu1.iq.fu_full::SimdReduceCmp               0      0.00%     21.37% # attempts to use FU when none available
system.cpu1.iq.fu_full::SimdFloatReduceAdd            0      0.00%     21.37% # attempts to use FU when none available
system.cpu1.iq.fu_full::SimdFloatReduceCmp            0      0.00%     21.37% # attempts to use FU when none available
system.cpu1.iq.fu_full::SimdAes                     0      0.00%     21.37% # attempts to use FU when none available
system.cpu1.iq.fu_full::SimdAesMix                  0      0.00%     21.37% # attempts to use FU when none available
system.cpu1.iq.fu_full::SimdSha1Hash                0      0.00%     21.37% # attempts to use FU when none available
system.cpu1.iq.fu_full::SimdSha1Hash2               0      0.00%     21.37% # attempts to use FU when none available
system.cpu1.iq.fu_full::SimdSha256Hash              0      0.00%     21.37% # attempts to use FU when none available
system.cpu1.iq.fu_full::SimdSha256Hash2             0      0.00%     21.37% # attempts to use FU when none available
system.cpu1.iq.fu_full::SimdShaSigma2               0      0.00%     21.37% # attempts to use FU when none available
system.cpu1.iq.fu_full::SimdShaSigma3               0      0.00%     21.37% # attempts to use FU when none available
system.cpu1.iq.fu_full::SimdPredAlu                 0      0.00%     21.37% # attempts to use FU when none available
system.cpu1.iq.fu_full::MemRead                421217     69.88%     91.25% # attempts to use FU when none available
[...]
system.cpu1.dcache.WriteReq_mshr_misses::total        32966                       # number of WriteReq MSHR misses
system.cpu1.dcache.WriteReq_mshr_miss_latency::.cpu1.data   2775460830                       # number of WriteReq MSHR miss cycles
system.cpu1.dcache.WriteReq_mshr_miss_latency::total   2775460830                       # number of WriteReq MSHR miss cycles
system.cpu1.dcache.WriteReq_mshr_miss_rate::.cpu1.data     0.047846                       # mshr miss rate for WriteReq accesses
system.cpu1.dcache.WriteReq_mshr_miss_rate::total     0.047846                       # mshr miss rate for WriteReq accesses
system.cpu1.dcache.WriteReq_avg_mshr_miss_latency::.cpu1.data 84191.616514                       # average WriteReq mshr miss latency
system.cpu1.dcache.WriteReq_avg_mshr_miss_latency::total 84191.616514                       # average WriteReq mshr miss latency
system.cpu1.dcache.LoadLockedReq_hits::.cpu1.data          715                       # number of LoadLockedReq hits
system.cpu1.dcache.LoadLockedReq_hits::total          715                       # number of LoadLockedReq hits
system.cpu1.dcache.LoadLockedReq_misses::.cpu1.data          234                       # number of LoadLockedReq misses
system.cpu1.dcache.LoadLockedReq_misses::total          234                       # number of LoadLockedReq misses
system.cpu1.dcache.LoadLockedReq_miss_latency::.cpu1.data      9568000                       # number of LoadLockedReq miss cycles
system.cpu1.dcache.LoadLockedReq_miss_latency::total      9568000                       # number of LoadLockedReq miss cycles
system.cpu1.dcache.LoadLockedReq_accesses::.cpu1.data          949                       # number of LoadLockedReq accesses(hits+misses)
system.cpu1.dcache.LoadLockedReq_accesses::total          949                       # number of LoadLockedReq accesses(hits+misses)
system.cpu1.dcache.LoadLockedReq_miss_rate::.cpu1.data     0.246575                       # miss rate for LoadLockedReq accesses
system.cpu1.dcache.LoadLockedReq_miss_rate::total     0.246575                       # miss rate for LoadLockedReq accesses
system.cpu1.dcache.LoadLockedReq_avg_miss_latency::.cpu1.data 40888.888889                       # average LoadLockedReq miss latency
system.cpu1.dcache.LoadLockedReq_avg_miss_latency::total 40888.888889                       # average LoadLockedReq miss latency
system.cpu1.dcache.LoadLockedReq_mshr_hits::.cpu1.data          118                       # number of LoadLockedReq MSHR hits
system.cpu1.dcache.LoadLockedReq_mshr_hits::total          118                       # number of LoadLockedReq MSHR hits
system.cpu1.dcache.LoadLockedReq_mshr_misses::.cpu1.data          116                       # number of LoadLockedReq MSHR misses
system.cpu1.dcache.LoadLockedReq_mshr_misses::total          116                       # number of LoadLockedReq MSHR misses
system.cpu1.dcache.LoadLockedReq_mshr_miss_latency::.cpu1.data      1202000                       # number of LoadLockedReq MSHR miss cycles
system.cpu1.dcache.LoadLockedReq_mshr_miss_latency::total      1202000                       # number of LoadLockedReq MSHR miss cycles
system.cpu1.dcache.LoadLockedReq_mshr_miss_rate::.cpu1.data     0.122234                       # mshr miss rate for LoadLockedReq accesses
system.cpu1.dcache.LoadLockedReq_mshr_miss_rate::total     0.122234                       # mshr miss rate for LoadLockedReq accesses
system.cpu1.dcache.LoadLockedReq_avg_mshr_miss_latency::.cpu1.data 10362.068966                       # average LoadLockedReq mshr miss latency
system.cpu1.dcache.LoadLockedReq_avg_mshr_miss_latency::total 10362.068966                       # average LoadLockedReq mshr miss latency
system.cpu1.dcache.StoreCondReq_hits::.cpu1.data          397                       # number of StoreCondReq hits
system.cpu1.dcache.StoreCondReq_hits::total          397                       # number of StoreCondReq hits
system.cpu1.dcache.StoreCondReq_misses::.cpu1.data          304                       # number of StoreCondReq misses
system.cpu1.dcache.StoreCondReq_misses::total          304                       # number of StoreCondReq misses
system.cpu1.dcache.StoreCondReq_miss_latency::.cpu1.data      1472000                       # number of StoreCondReq miss cycles
system.cpu1.dcache.StoreCondReq_miss_latency::total      1472000                       # number of StoreCondReq miss cycles
system.cpu1.dcache.StoreCondReq_accesses::.cpu1.data          701                       # number of StoreCondReq accesses(hits+misses)
system.cpu1.dcache.StoreCondReq_accesses::total          701                       # number of StoreCondReq accesses(hits+misses)
system.cpu1.dcache.StoreCondReq_miss_rate::.cpu1.data     0.433666                       # miss rate for StoreCondReq accesses
system.cpu1.dcache.StoreCondReq_miss_rate::total     0.433666                       # miss rate for StoreCondReq accesses
system.cpu1.dcache.StoreCondReq_avg_miss_latency::.cpu1.data  4842.105263                       # average StoreCondReq miss latency
system.cpu1.dcache.StoreCondReq_avg_miss_latency::total  4842.105263                       # average StoreCondReq miss latency
system.cpu1.dcache.StoreCondReq_mshr_misses::.cpu1.data          303                       # number of StoreCondReq MSHR misses
system.cpu1.dcache.StoreCondReq_mshr_misses::total          303                       # number of StoreCondReq MSHR misses
system.cpu1.dcache.StoreCondReq_mshr_miss_latency::.cpu1.data      1228000                       # number of StoreCondReq MSHR miss cycles
system.cpu1.dcache.StoreCondReq_mshr_miss_latency::total      1228000                       # number of StoreCondReq MSHR miss cycles
system.cpu1.dcache.StoreCondReq_mshr_miss_rate::.cpu1.data     0.432240                       # mshr miss rate for StoreCondReq accesses
system.cpu1.dcache.StoreCondReq_mshr_miss_rate::total     0.432240                       # mshr miss rate for StoreCondReq accesses
system.cpu1.dcache.StoreCondReq_avg_mshr_miss_latency::.cpu1.data  4052.805281                       # average StoreCondReq mshr miss latency
system.cpu1.dcache.StoreCondReq_avg_mshr_miss_latency::total  4052.805281                       # average StoreCondReq mshr miss latency
system.cpu1.dcache.StoreCondFailReq_miss_latency::.cpu1.data      1216000                       # number of StoreCondFailReq miss cycles
system.cpu1.dcache.StoreCondFailReq_miss_latency::total      1216000                       # number of StoreCondFailReq miss cycles
system.cpu1.dcache.StoreCondFailReq_avg_miss_latency::.cpu1.data          inf                       # average StoreCondFailReq miss latency
system.cpu1.dcache.StoreCondFailReq_avg_miss_latency::total          inf                       # average StoreCondFailReq miss latency
system.cpu1.dcache.StoreCondFailReq_mshr_miss_latency::.cpu1.data      1157000                       # number of StoreCondFailReq MSHR miss cycles
system.cpu1.dcache.StoreCondFailReq_mshr_miss_latency::total      1157000                       # number of StoreCondFailReq MSHR miss cycles
system.cpu1.dcache.StoreCondFailReq_avg_mshr_miss_latency::.cpu1.data          inf                       # average StoreCondFailReq mshr miss latency
system.cpu1.dcache.StoreCondFailReq_avg_mshr_miss_latency::total          inf                       # average StoreCondFailReq mshr miss latency
system.cpu1.dcache.SwapReq_hits::.cpu1.data          180                       # number of SwapReq hits
system.cpu1.dcache.SwapReq_hits::total            180                       # number of SwapReq hits
system.cpu1.dcache.SwapReq_misses::.cpu1.data          430                       # number of SwapReq misses
system.cpu1.dcache.SwapReq_misses::total          430                       # number of SwapReq misses
system.cpu1.dcache.SwapReq_miss_latency::.cpu1.data      2294000                       # number of SwapReq miss cycles
system.cpu1.dcache.SwapReq_miss_latency::total      2294000                       # number of SwapReq miss cycles
system.cpu1.dcache.SwapReq_accesses::.cpu1.data          610                       # number of SwapReq accesses(hits+misses)
system.cpu1.dcache.SwapReq_accesses::total          610                       # number of SwapReq accesses(hits+misses)
system.cpu1.dcache.SwapReq_miss_rate::.cpu1.data     0.704918                       # miss rate for SwapReq accesses
system.cpu1.dcache.SwapReq_miss_rate::total     0.704918                       # miss rate for SwapReq accesses
system.cpu1.dcache.SwapReq_avg_miss_latency::.cpu1.data  5334.883721                       # average SwapReq miss latency
system.cpu1.dcache.SwapReq_avg_miss_latency::total  5334.883721                       # average SwapReq miss latency
system.cpu1.dcache.SwapReq_mshr_misses::.cpu1.data          430                       # number of SwapReq MSHR misses
system.cpu1.dcache.SwapReq_mshr_misses::total          430                       # number of SwapReq MSHR misses
system.cpu1.dcache.SwapReq_mshr_miss_latency::.cpu1.data      1864000                       # number of SwapReq MSHR miss cycles
system.cpu1.dcache.SwapReq_mshr_miss_latency::total      1864000                       # number of SwapReq MSHR miss cycles
system.cpu1.dcache.SwapReq_mshr_miss_rate::.cpu1.data     0.704918                       # mshr miss rate for SwapReq accesses
system.cpu1.dcache.SwapReq_mshr_miss_rate::total     0.704918                       # mshr miss rate for SwapReq accesses
system.cpu1.dcache.SwapReq_avg_mshr_miss_latency::.cpu1.data  4334.883721                       # average SwapReq mshr miss latency
system.cpu1.dcache.SwapReq_avg_mshr_miss_latency::total  4334.883721                       # average SwapReq mshr miss latency
system.cpu1.dcache.tags.pwrStateResidencyTicks::UNDEFINED 273749299000                       # Cumulative time (in ticks) in various power states
system.cpu1.dcache.tags.tagsinuse           29.152128                       # Cycle average of tags in use
system.cpu1.dcache.tags.total_refs           12795968                       # Total number of references to valid blocks.
system.cpu1.dcache.tags.sampled_refs          1663598                       # Sample count of references to valid blocks.
system.cpu1.dcache.tags.avg_refs             7.691743                       # Average number of references to valid blocks.
system.cpu1.dcache.tags.warmup_cycle                0                       # Cycle when the warmup percentage was hit.
system.cpu1.dcache.tags.occ_blocks::.cpu1.data    29.152128                       # Average occupied blocks per requestor
system.cpu1.dcache.tags.occ_percent::.cpu1.data     0.911004                       # Average percentage of cache occupancy
system.cpu1.dcache.tags.occ_percent::total     0.911004                       # Average percentage of cache occupancy
system.cpu1.dcache.tags.occ_task_id_blocks::1024           29                       # Occupied blocks per task id
system.cpu1.dcache.tags.age_task_id_blocks_1024::1           29                       # Occupied blocks per task id
system.cpu1.dcache.tags.occ_task_id_percent::1024     0.906250                       # Percentage of cache occupancy per task id
system.cpu1.dcache.tags.tag_accesses         31140100                       # Number of tag accesses
system.cpu1.dcache.tags.data_accesses        31140100                       # Number of data accesses
system.cpu_clk_domain.clock                       500                       # Clock period in ticks
system.tol2bus.pwrStateResidencyTicks::UNDEFINED 273749299000                       # Cumulative time (in ticks) in various power states
system.tol2bus.trans_dist::ReadResp          13775452                       # Transaction distribution
system.tol2bus.trans_dist::ReadRespWithInvalidate            3                       # Transaction distribution
system.tol2bus.trans_dist::WritebackDirty      1127959                       # Transaction distribution
system.tol2bus.trans_dist::WritebackClean     13239617                       # Transaction distribution
system.tol2bus.trans_dist::CleanEvict        21334189                       # Transaction distribution
system.tol2bus.trans_dist::UpgradeReq           18072                       # Transaction distribution
system.tol2bus.trans_dist::SCUpgradeReq          1285                       # Transaction distribution
system.tol2bus.trans_dist::UpgradeResp          19357                       # Transaction distribution
system.tol2bus.trans_dist::SCUpgradeFailReq          145                       # Transaction distribution
system.tol2bus.trans_dist::UpgradeFailResp          145                       # Transaction distribution
system.tol2bus.trans_dist::ReadExReq            85191                       # Transaction distribution
system.tol2bus.trans_dist::ReadExResp           85191                       # Transaction distribution
system.tol2bus.trans_dist::ReadCleanReq         24032                       # Transaction distribution
system.tol2bus.trans_dist::ReadSharedReq     13751424                       # Transaction distribution
system.tol2bus.pkt_count_system.cpu0.icache.mem_side::system.l2.cpu_side        46372                       # Packet count per connected master and slave (bytes)
system.tol2bus.pkt_count_system.cpu0.dcache.mem_side::system.l2.cpu_side     33021111                       # Packet count per connected master and slave (bytes)
system.tol2bus.pkt_count_system.cpu1.icache.mem_side::system.l2.cpu_side         8628                       # Packet count per connected master and slave (bytes)
system.tol2bus.pkt_count_system.cpu1.dcache.mem_side::system.l2.cpu_side      5008040                       # Packet count per connected master and slave (bytes)
system.tol2bus.pkt_count_system.cpu2.icache.mem_side::system.l2.cpu_side         8634                       # Packet count per connected master and slave (bytes)
system.tol2bus.pkt_count_system.cpu2.dcache.mem_side::system.l2.cpu_side      1871403                       # Packet count per connected master and slave (bytes)
system.tol2bus.pkt_count_system.cpu3.icache.mem_side::system.l2.cpu_side         8460                       # Packet count per connected master and slave (bytes)
system.tol2bus.pkt_count_system.cpu3.dcache.mem_side::system.l2.cpu_side      1600444                       # Packet count per connected master and slave (bytes)
system.tol2bus.pkt_count::total              41573092                       # Packet count per connected master and slave (bytes)
system.tol2bus.pkt_size_system.cpu0.icache.mem_side::system.l2.cpu_side      1978496                       # Cumulative packet size per connected master and slave (bytes)
system.tol2bus.pkt_size_system.cpu0.dcache.mem_side::system.l2.cpu_side   1408517248                       # Cumulative packet size per connected master and slave (bytes)
system.tol2bus.pkt_size_system.cpu1.icache.mem_side::system.l2.cpu_side       368128                       # Cumulative packet size per connected master and slave (bytes)
system.tol2bus.pkt_size_system.cpu1.dcache.mem_side::system.l2.cpu_side    212440320                       # Cumulative packet size per connected master and slave (bytes)
system.tol2bus.pkt_size_system.cpu2.icache.mem_side::system.l2.cpu_side       368384                       # Cumulative packet size per connected master and slave (bytes)
system.tol2bus.pkt_size_system.cpu2.dcache.mem_side::system.l2.cpu_side     79599488                       # Cumulative packet size per connected master and slave (bytes)
system.tol2bus.pkt_size_system.cpu3.icache.mem_side::system.l2.cpu_side       360960                       # Cumulative packet size per connected master and slave (bytes)
system.tol2bus.pkt_size_system.cpu3.dcache.mem_side::system.l2.cpu_side     67735360                       # Cumulative packet size per connected master and slave (bytes)
system.tol2bus.pkt_size::total             1771368384                       # Cumulative packet size per connected master and slave (bytes)
system.tol2bus.snoops                        21888970                       # Total snoops (count)
system.tol2bus.snoopTraffic                  35247104                       # Total snoop traffic (bytes)
system.tol2bus.snoop_fanout::samples         35742104                       # Request fanout histogram
system.tol2bus.snoop_fanout::mean            0.355342                       # Request fanout histogram
system.tol2bus.snoop_fanout::stdev           0.582566                       # Request fanout histogram
system.tol2bus.snoop_fanout::underflows             0      0.00%      0.00% # Request fanout histogram
system.tol2bus.snoop_fanout::0               24422258     68.33%     68.33% # Request fanout histogram
system.tol2bus.snoop_fanout::1               10410660     29.13%     97.46% # Request fanout histogram
system.tol2bus.snoop_fanout::2                 556340      1.56%     99.01% # Request fanout histogram
system.tol2bus.snoop_fanout::3                 234134      0.66%     99.67% # Request fanout histogram
system.tol2bus.snoop_fanout::4                 118632      0.33%    100.00% # Request fanout histogram
system.tol2bus.snoop_fanout::5                     80      0.00%    100.00% # Request fanout histogram
system.tol2bus.snoop_fanout::6                      0      0.00%    100.00% # Request fanout histogram
system.tol2bus.snoop_fanout::7                      0      0.00%    100.00% # Request fanout histogram
system.tol2bus.snoop_fanout::8                      0      0.00%    100.00% # Request fanout histogram
system.tol2bus.snoop_fanout::overflows              0      0.00%    100.00% # Request fanout histogram
system.tol2bus.snoop_fanout::min_value              0                       # Request fanout histogram
system.tol2bus.snoop_fanout::max_value              5                       # Request fanout histogram
system.tol2bus.snoop_fanout::total           35742104                       # Request fanout histogram
system.tol2bus.reqLayer0.occupancy        27699914754                       # Layer occupancy (ticks)
system.tol2bus.reqLayer0.utilization             10.1                       # Layer utilization (%)
system.tol2bus.respLayer5.occupancy         940473678                       # Layer occupancy (ticks)
system.tol2bus.respLayer5.utilization             0.3                       # Layer utilization (%)
system.tol2bus.respLayer4.occupancy           4621793                       # Layer occupancy (ticks)
system.tol2bus.respLayer4.utilization             0.0                       # Layer utilization (%)
system.tol2bus.respLayer7.occupancy         814165367                       # Layer occupancy (ticks)
system.tol2bus.respLayer7.utilization             0.3                       # Layer utilization (%)
system.tol2bus.respLayer6.occupancy           4412961                       # Layer occupancy (ticks)
system.tol2bus.respLayer6.utilization             0.0                       # Layer utilization (%)
system.tol2bus.respLayer1.occupancy       16518403908                       # Layer occupancy (ticks)
system.tol2bus.respLayer1.utilization             6.0                       # Layer utilization (%)
system.tol2bus.respLayer0.occupancy          23212421                       # Layer occupancy (ticks)
system.tol2bus.respLayer0.utilization             0.0                       # Layer utilization (%)
system.tol2bus.respLayer3.occupancy        2507535196                       # Layer occupancy (ticks)
system.tol2bus.respLayer3.utilization             0.9                       # Layer utilization (%)
system.tol2bus.respLayer2.occupancy           4562847                       # Layer occupancy (ticks)
system.tol2bus.respLayer2.utilization             0.0                       # Layer utilization (%)

---------- End Simulation Statistics   ----------
