
---------- Begin Simulation Statistics ----------
final_tick                               489339394500                       # Number of ticks from beginning of simulation (restored from checkpoints and never reset)
host_inst_rate                                  92865                       # Simulator instruction rate (inst/s)
host_mem_usage                                 739080                       # Number of bytes of host memory used
host_op_rate                                    93173                       # Simulator op (including micro ops) rate (op/s)
host_seconds                                  6605.60                       # Real time elapsed on the host
host_tick_rate                               74079515                       # Simulator tick rate (ticks/s)
sim_freq                                 1000000000000                       # Frequency of simulated ticks
sim_insts                                   613425507                       # Number of instructions simulated
sim_ops                                     615464293                       # Number of ops (including micro ops) simulated
sim_seconds                                  0.489339                       # Number of seconds simulated
sim_ticks                                489339394500                       # Number of ticks simulated
system.cpu0.branchPred.BTBCorrect                   0                       # Number of correct BTB predictions (this stat may not work properly.
system.cpu0.branchPred.BTBHitPct            86.606151                       # BTB Hit Percentage
system.cpu0.branchPred.BTBHits               77148394                       # Number of BTB hits
system.cpu0.branchPred.BTBLookups            89079578                       # Number of BTB lookups
system.cpu0.branchPred.RASInCorrect                 0                       # Number of incorrect RAS predictions.
system.cpu0.branchPred.condIncorrect          8481380                       # Number of conditional branches incorrect
system.cpu0.branchPred.condPredicted        119506646                       # Number of conditional branches predicted
system.cpu0.branchPred.indirectHits          11656351                       # Number of indirect target hits.
system.cpu0.branchPred.indirectLookups       11763575                       # Number of indirect predictor lookups.
system.cpu0.branchPred.indirectMisses          107224                       # Number of indirect misses.
system.cpu0.branchPred.lookups              155075652                       # Number of BP lookups
system.cpu0.branchPred.usedRAS                      0                       # Number of times the RAS was used to get a target.
system.cpu0.branchPredindirectMispredicted      1052544                       # Number of mispredicted indirect branches.
system.cpu0.commit.amos                        509392                       # Number of atomic instructions committed
system.cpu0.commit.branchMispredicts          5582459                       # The number of times a branch was mispredicted
system.cpu0.commit.branches                 138974077                       # Number of branches committed
system.cpu0.commit.bw_lim_events             17224729                       # number cycles where commit BW limit reached
system.cpu0.commit.commitNonSpecStalls        1532350                       # The number of times commit has been forced to stall to communicate backwards
system.cpu0.commit.commitSquashedInsts       54339047                       # The number of squashed insts skipped by commit
system.cpu0.commit.committedInsts           561811813                       # Number of instructions committed
system.cpu0.commit.committedOps             562322479                       # Number of ops (including micro ops) committed
system.cpu0.commit.committed_per_cycle::samples    888832948                       # Number of insts commited each cycle
system.cpu0.commit.committed_per_cycle::mean     0.632653                       # Number of insts commited each cycle
system.cpu0.commit.committed_per_cycle::stdev     1.425117                       # Number of insts commited each cycle
system.cpu0.commit.committed_per_cycle::underflows            0      0.00%      0.00% # Number of insts commited each cycle
system.cpu0.commit.committed_per_cycle::0    624227662     70.23%     70.23% # Number of insts commited each cycle
system.cpu0.commit.committed_per_cycle::1    157005642     17.66%     87.89% # Number of insts commited each cycle
system.cpu0.commit.committed_per_cycle::2     36007148      4.05%     91.95% # Number of insts commited each cycle
system.cpu0.commit.committed_per_cycle::3     34991192      3.94%     95.88% # Number of insts commited each cycle
system.cpu0.commit.committed_per_cycle::4     11781884      1.33%     97.21% # Number of insts commited each cycle
system.cpu0.commit.committed_per_cycle::5      4409417      0.50%     97.70% # Number of insts commited each cycle
system.cpu0.commit.committed_per_cycle::6       940406      0.11%     97.81% # Number of insts commited each cycle
system.cpu0.commit.committed_per_cycle::7      2244868      0.25%     98.06% # Number of insts commited each cycle
system.cpu0.commit.committed_per_cycle::8     17224729      1.94%    100.00% # Number of insts commited each cycle
system.cpu0.commit.committed_per_cycle::overflows            0      0.00%    100.00% # Number of insts commited each cycle
system.cpu0.commit.committed_per_cycle::min_value            0                       # Number of insts commited each cycle
system.cpu0.commit.committed_per_cycle::max_value            8                       # Number of insts commited each cycle
system.cpu0.commit.committed_per_cycle::total    888832948                       # Number of insts commited each cycle
system.cpu0.commit.fp_insts                        50                       # Number of committed floating point instructions.
system.cpu0.commit.function_calls            11671999                       # Number of function calls committed.
system.cpu0.commit.int_insts                543457315                       # Number of committed integer instructions.
system.cpu0.commit.loads                    174762330                       # Number of loads committed
system.cpu0.commit.membars                    1019949                       # Number of memory barriers committed
system.cpu0.commit.op_class_0::No_OpClass      1019955      0.18%      0.18% # Class of committed instruction
system.cpu0.commit.op_class_0::IntAlu       311059205     55.32%     55.50% # Class of committed instruction
system.cpu0.commit.op_class_0::IntMult        4137156      0.74%     56.23% # Class of committed instruction
system.cpu0.commit.op_class_0::IntDiv         1017773      0.18%     56.41% # Class of committed instruction
system.cpu0.commit.op_class_0::FloatAdd             0      0.00%     56.41% # Class of committed instruction
system.cpu0.commit.op_class_0::FloatCmp             4      0.00%     56.41% # Class of committed instruction
system.cpu0.commit.op_class_0::FloatCvt            12      0.00%     56.41% # Class of committed instruction
system.cpu0.commit.op_class_0::FloatMult            0      0.00%     56.41% # Class of committed instruction
system.cpu0.commit.op_class_0::FloatMultAcc            0      0.00%     56.41% # Class of committed instruction
system.cpu0.commit.op_class_0::FloatDiv             2      0.00%     56.41% # Class of committed instruction
system.cpu0.commit.op_class_0::FloatMisc            4      0.00%     56.41% # Class of committed instruction
system.cpu0.commit.op_class_0::FloatSqrt            0      0.00%     56.41% # Class of committed instruction
system.cpu0.commit.op_class_0::SimdAdd              0      0.00%     56.41% # Class of committed instruction
system.cpu0.commit.op_class_0::SimdAddAcc            0      0.00%     56.41% # Class of committed instruction
system.cpu0.commit.op_class_0::SimdAlu              0      0.00%     56.41% # Class of committed instruction
system.cpu0.commit.op_class_0::SimdCmp              0      0.00%     56.41% # Class of committed instruction
system.cpu0.commit.op_class_0::SimdCvt              0      0.00%     56.41% # Class of committed instruction
system.cpu0.commit.op_class_0::SimdMisc             0      0.00%     56.41% # Class of committed instruction
system.cpu0.commit.op_class_0::SimdMult             0      0.00%     56.41% # Class of committed instruction
system.cpu0.commit.op_class_0::SimdMultAcc            0      0.00%     56.41% # Class of committed instruction
system.cpu0.commit.op_class_0::SimdShift            0      0.00%     56.41% # Class of committed instruction
system.cpu0.commit.op_class_0::SimdShiftAcc            0      0.00%     56.41% # Class of committed instruction
system.cpu0.commit.op_class_0::SimdDiv              0      0.00%     56.41% # Class of committed instruction
system.cpu0.commit.op_class_0::SimdSqrt             0      0.00%     56.41% # Class of committed instruction
system.cpu0.commit.op_class_0::SimdFloatAdd            0      0.00%     56.41% # Class of committed instruction
system.cpu0.commit.op_class_0::SimdFloatAlu            0      0.00%     56.41% # Class of committed instruction
system.cpu0.commit.op_class_0::SimdFloatCmp            0      0.00%     56.41% # Class of committed instruction
system.cpu0.commit.op_class_0::SimdFloatCvt            0      0.00%     56.41% # Class of committed instruction
system.cpu0.commit.op_class_0::SimdFloatDiv            0      0.00%     56.41% # Class of committed instruction
system.cpu0.commit.op_class_0::SimdFloatMisc            0      0.00%     56.41% # Class of committed instruction
system.cpu0.commit.op_class_0::SimdFloatMult            0      0.00%     56.41% # Class of committed instruction
system.cpu0.commit.op_class_0::SimdFloatMultAcc            0      0.00%     56.41% # Class of committed instruction
system.cpu0.commit.op_class_0::SimdFloatSqrt            0      0.00%     56.41% # Class of committed instruction
system.cpu0.commit.op_class_0::SimdReduceAdd            0      0.00%     56.41% # Class of committed instruction
system.cpu0.commit.op_class_0::SimdReduceAlu            0      0.00%     56.41% # Class of committed instruction
system.cpu0.commit.op_class_0::SimdReduceCmp            0      0.00%     56.41% # Class of committed instruction
system.cpu0.commit.op_class_0::SimdFloatReduceAdd            0      0.00%     56.41% # Class of committed instruction
system.cpu0.commit.op_class_0::SimdFloatReduceCmp            0      0.00%     56.41% # Class of committed instruction
system.cpu0.commit.op_class_0::SimdAes              0      0.00%     56.41% # Class of committed instruction
system.cpu0.commit.op_class_0::SimdAesMix            0      0.00%     56.41% # Class of committed instruction
system.cpu0.commit.op_class_0::SimdSha1Hash            0      0.00%     56.41% # Class of committed instruction
system.cpu0.commit.op_class_0::SimdSha1Hash2            0      0.00%     56.41% # Class of committed instruction
system.cpu0.commit.op_class_0::SimdSha256Hash            0      0.00%     56.41% # Class of committed instruction
system.cpu0.commit.op_class_0::SimdSha256Hash2            0      0.00%     56.41% # Class of committed instruction
system.cpu0.commit.op_class_0::SimdShaSigma2            0      0.00%     56.41% # Class of committed instruction
system.cpu0.commit.op_class_0::SimdShaSigma3            0      0.00%     56.41% # Class of committed instruction
system.cpu0.commit.op_class_0::SimdPredAlu            0      0.00%     56.41% # Class of committed instruction
system.cpu0.commit.op_class_0::MemRead      175271714     31.17%     87.58% # Class of committed instruction
system.cpu0.commit.op_class_0::MemWrite      69816626     12.42%    100.00% # Class of committed instruction
system.cpu0.commit.op_class_0::FloatMemRead            8      0.00%    100.00% # Class of committed instruction
system.cpu0.commit.op_class_0::FloatMemWrite           20      0.00%    100.00% # Class of committed instruction
system.cpu0.commit.op_class_0::IprAccess            0      0.00%    100.00% # Class of committed instruction
system.cpu0.commit.op_class_0::InstPrefetch            0      0.00%    100.00% # Class of committed instruction
system.cpu0.commit.op_class_0::total        562322479                       # Class of committed instruction
system.cpu0.commit.refs                     245088368                       # Number of memory references committed
system.cpu0.commit.swp_count                        0                       # Number of s/w prefetches committed
system.cpu0.commit.vec_insts                        0                       # Number of committed Vector instructions.
system.cpu0.committedInsts                  561811813                       # Number of Instructions Simulated
system.cpu0.committedOps                    562322479                       # Number of Ops (including micro ops) Simulated
system.cpu0.cpi                              1.721890                       # CPI: Cycles Per Instruction
system.cpu0.cpi_total                        1.721890                       # CPI: Total CPI of All Threads
system.cpu0.decode.BlockedCycles            106596684                       # Number of cycles decode is blocked
system.cpu0.decode.BranchMispred              2903560                       # Number of times decode detected a branch misprediction
system.cpu0.decode.BranchResolved            75553274                       # Number of times decode resolved a branch
system.cpu0.decode.DecodedInsts             628912729                       # Number of instructions handled by decode
system.cpu0.decode.IdleCycles               348315767                       # Number of cycles decode is idle
system.cpu0.decode.RunCycles                436458422                       # Number of cycles decode is running
system.cpu0.decode.SquashCycles               5587488                       # Number of cycles decode is squashing
system.cpu0.decode.SquashedInsts              9540229                       # Number of squashed instructions handled by decode
system.cpu0.decode.UnblockCycles              2461113                       # Number of cycles decode is unblocking
system.cpu0.dtb.accesses                            0                       # DTB accesses
system.cpu0.dtb.hits                                0                       # DTB hits
system.cpu0.dtb.misses                              0                       # DTB misses
system.cpu0.dtb.read_accesses                       0                       # DTB read accesses
system.cpu0.dtb.read_hits                           0                       # DTB read hits
system.cpu0.dtb.read_misses                         0                       # DTB read misses
system.cpu0.dtb.write_accesses                      0                       # DTB write accesses
system.cpu0.dtb.write_hits                          0                       # DTB write hits
system.cpu0.dtb.write_misses                        0                       # DTB write misses
system.cpu0.fetch.Branches                  155075652                       # Number of branches that fetch encountered
system.cpu0.fetch.CacheLines                102157873                       # Number of cache lines fetched
system.cpu0.fetch.Cycles                    551559075                       # Number of cycles fetch has run and was not squashing or blocked
system.cpu0.fetch.IcacheSquashes              2927093                       # Number of outstanding Icache misses that were squashed
system.cpu0.fetch.IcacheWaitRetryStallCycles          173                       # Number of stall cycles due to full MSHR
system.cpu0.fetch.Insts                     647947739                       # Number of instructions fetch has processed
system.cpu0.fetch.MiscStallCycles                  51                       # Number of cycles fetch has spent waiting on interrupts, or bad addresses, or out of MSHRs
system.cpu0.fetch.PendingTrapStallCycles          100                       # Number of stall cycles due to pending traps
system.cpu0.fetch.SquashCycles               16972848                       # Number of cycles fetch has spent squashing
system.cpu0.fetch.branchRate                 0.160305                       # Number of branch fetches per cycle
system.cpu0.fetch.icacheStallCycles         339373651                       # Number of cycles fetch is stalled on an Icache miss
system.cpu0.fetch.predictedBranches          88804745                       # Number of branches that fetch has predicted taken
system.cpu0.fetch.rate                       0.669798                       # Number of inst fetches per cycle
system.cpu0.fetch.rateDist::samples         899419474                       # Number of instructions fetched each cycle (Total)
system.cpu0.fetch.rateDist::mean             0.720975                       # Number of instructions fetched each cycle (Total)
system.cpu0.fetch.rateDist::stdev            0.935465                       # Number of instructions fetched each cycle (Total)
system.cpu0.fetch.rateDist::underflows              0      0.00%      0.00% # Number of instructions fetched each cycle (Total)
system.cpu0.fetch.rateDist::0               445472537     49.53%     49.53% # Number of instructions fetched each cycle (Total)
system.cpu0.fetch.rateDist::1               336001493     37.36%     86.89% # Number of instructions fetched each cycle (Total)
system.cpu0.fetch.rateDist::2                60984065      6.78%     93.67% # Number of instructions fetched each cycle (Total)
system.cpu0.fetch.rateDist::3                43473714      4.83%     98.50% # Number of instructions fetched each cycle (Total)
system.cpu0.fetch.rateDist::4                10577541      1.18%     99.68% # Number of instructions fetched each cycle (Total)
system.cpu0.fetch.rateDist::5                 1744282      0.19%     99.87% # Number of instructions fetched each cycle (Total)
system.cpu0.fetch.rateDist::6                  144867      0.02%     99.89% # Number of instructions fetched each cycle (Total)
system.cpu0.fetch.rateDist::7                     463      0.00%     99.89% # Number of instructions fetched each cycle (Total)
system.cpu0.fetch.rateDist::8                 1020512      0.11%    100.00% # Number of instructions fetched each cycle (Total)
system.cpu0.fetch.rateDist::overflows               0      0.00%    100.00% # Number of instructions fetched each cycle (Total)
system.cpu0.fetch.rateDist::min_value               0                       # Number of instructions fetched each cycle (Total)
system.cpu0.fetch.rateDist::max_value               8                       # Number of instructions fetched each cycle (Total)
system.cpu0.fetch.rateDist::total           899419474                       # Number of instructions fetched each cycle (Total)
system.cpu0.fp_regfile_reads                       44                       # number of floating regfile reads
system.cpu0.fp_regfile_writes                      24                       # number of floating regfile writes
system.cpu0.idleCycles                       67958697                       # Total number of cycles that the CPU has spent unscheduled due to idling
system.cpu0.iew.branchMispredicts             5689615                       # Number of branch mispredicts detected at execute
system.cpu0.iew.exec_branches               146350316                       # Number of branches executed
system.cpu0.iew.exec_nop                            0                       # number of nop insts executed
system.cpu0.iew.exec_rate                    0.632341                       # Inst execution rate
system.cpu0.iew.exec_refs                   275557271                       # number of memory reference insts executed
system.cpu0.iew.exec_stores                  77643393                       # Number of stores executed
system.cpu0.iew.exec_swp                            0                       # number of swp insts executed
system.cpu0.iew.iewBlockCycles               88485160                       # Number of cycles IEW is blocking
system.cpu0.iew.iewDispLoadInsts            197507250                       # Number of dispatched load instructions
system.cpu0.iew.iewDispNonSpecInsts            512606                       # Number of dispatched non-speculative instructions
system.cpu0.iew.iewDispSquashedInsts          2766707                       # Number of squashed instructions skipped by dispatch
system.cpu0.iew.iewDispStoreInsts            78644173                       # Number of dispatched store instructions
system.cpu0.iew.iewDispatchedInsts          616648042                       # Number of instructions dispatched to IQ
system.cpu0.iew.iewExecLoadInsts            197913878                       # Number of load instructions executed
system.cpu0.iew.iewExecSquashedInsts          3857494                       # Number of squashed instructions skipped in execute
system.cpu0.iew.iewExecutedInsts            611712632                       # Number of executed instructions
system.cpu0.iew.iewIQFullEvents                526789                       # Number of times the IQ has become full, causing a stall
system.cpu0.iew.iewIdleCycles                       0                       # Number of cycles IEW is idle
system.cpu0.iew.iewLSQFullEvents              1767048                       # Number of times the LSQ has become full, causing a stall
system.cpu0.iew.iewSquashCycles               5587488                       # Number of cycles IEW is squashing
system.cpu0.iew.iewUnblockCycles              2865543                       # Number of cycles IEW is unblocking
system.cpu0.iew.lsq.thread0.blockedLoads            0                       # Number of blocked loads due to partial load-store forwarding
system.cpu0.iew.lsq.thread0.cacheBlocked        69351                       # Number of times an access to memory failed due to the cache being blocked
system.cpu0.iew.lsq.thread0.forwLoads         9398480                       # Number of loads that had data forwarded from stores
system.cpu0.iew.lsq.thread0.ignoredResponses        29831                       # Number of memory responses ignored because the instruction is squashed
system.cpu0.iew.lsq.thread0.invAddrLoads            0                       # Number of loads ignored due to an invalid address
system.cpu0.iew.lsq.thread0.invAddrSwpfs            0                       # Number of software prefetches ignored due to an invalid address
system.cpu0.iew.lsq.thread0.memOrderViolation         5324                       # Number of memory ordering violations
system.cpu0.iew.lsq.thread0.rescheduledLoads      3527238                       # Number of loads that were rescheduled
system.cpu0.iew.lsq.thread0.squashedLoads     22744920                       # Number of loads squashed
system.cpu0.iew.lsq.thread0.squashedStores      8318135                       # Number of stores squashed
system.cpu0.iew.memOrderViolationEvents          5324                       # Number of memory order violations
system.cpu0.iew.predictedNotTakenIncorrect       822133                       # Number of branches that were predicted not taken incorrectly
system.cpu0.iew.predictedTakenIncorrect       4867482                       # Number of branches that were predicted taken incorrectly
system.cpu0.iew.wb_consumers                271010972                       # num instructions consuming a value
system.cpu0.iew.wb_count                    605188785                       # cumulative count of insts written-back
system.cpu0.iew.wb_fanout                    0.838509                       # average fanout of values written-back
system.cpu0.iew.wb_producers                227245113                       # num instructions producing a value
system.cpu0.iew.wb_rate                      0.625597                       # insts written-back per cycle
system.cpu0.iew.wb_sent                     605287562                       # cumulative count of insts sent to commit
system.cpu0.int_regfile_reads               744488391                       # number of integer regfile reads
system.cpu0.int_regfile_writes              386940965                       # number of integer regfile writes
system.cpu0.ipc                              0.580757                       # IPC: Instructions Per Cycle
system.cpu0.ipc_total                        0.580757                       # IPC: Total IPC of All Threads
system.cpu0.iq.FU_type_0::No_OpClass          1020978      0.17%      0.17% # Type of FU issued
system.cpu0.iq.FU_type_0::IntAlu            332111508     53.95%     54.12% # Type of FU issued
system.cpu0.iq.FU_type_0::IntMult             4213268      0.68%     54.80% # Type of FU issued
system.cpu0.iq.FU_type_0::IntDiv              1018063      0.17%     54.97% # Type of FU issued
system.cpu0.iq.FU_type_0::FloatAdd                  0      0.00%     54.97% # Type of FU issued
system.cpu0.iq.FU_type_0::FloatCmp                  4      0.00%     54.97% # Type of FU issued
system.cpu0.iq.FU_type_0::FloatCvt                 12      0.00%     54.97% # Type of FU issued
system.cpu0.iq.FU_type_0::FloatMult                 0      0.00%     54.97% # Type of FU issued
system.cpu0.iq.FU_type_0::FloatMultAcc              0      0.00%     54.97% # Type of FU issued
system.cpu0.iq.FU_type_0::FloatDiv                  2      0.00%     54.97% # Type of FU issued
system.cpu0.iq.FU_type_0::FloatMisc                 4      0.00%     54.97% # Type of FU issued
system.cpu0.iq.FU_type_0::FloatSqrt                 0      0.00%     54.97% # Type of FU issued
system.cpu0.iq.FU_type_0::SimdAdd                   0      0.00%     54.97% # Type of FU issued
system.cpu0.iq.FU_type_0::SimdAddAcc                0      0.00%     54.97% # Type of FU issued
system.cpu0.iq.FU_type_0::SimdAlu                   0      0.00%     54.97% # Type of FU issued
system.cpu0.iq.FU_type_0::SimdCmp                   0      0.00%     54.97% # Type of FU issued
system.cpu0.iq.FU_type_0::SimdCvt                   0      0.00%     54.97% # Type of FU issued
system.cpu0.iq.FU_type_0::SimdMisc                  0      0.00%     54.97% # Type of FU issued
system.cpu0.iq.FU_type_0::SimdMult                  0      0.00%     54.97% # Type of FU issued
system.cpu0.iq.FU_type_0::SimdMultAcc               0      0.00%     54.97% # Type of FU issued
system.cpu0.iq.FU_type_0::SimdShift                 0      0.00%     54.97% # Type of FU issued
system.cpu0.iq.FU_type_0::SimdShiftAcc              0      0.00%     54.97% # Type of FU issued
system.cpu0.iq.FU_type_0::SimdDiv                   0      0.00%     54.97% # Type of FU issued
system.cpu0.iq.FU_type_0::SimdSqrt                  0      0.00%     54.97% # Type of FU issued
system.cpu0.iq.FU_type_0::SimdFloatAdd              0      0.00%     54.97% # Type of FU issued
system.cpu0.iq.FU_type_0::SimdFloatAlu              0      0.00%     54.97% # Type of FU issued
system.cpu0.iq.FU_type_0::SimdFloatCmp              0      0.00%     54.97% # Type of FU issued
system.cpu0.iq.FU_type_0::SimdFloatCvt              0      0.00%     54.97% # Type of FU issued
system.cpu0.iq.FU_type_0::SimdFloatDiv              0      0.00%     54.97% # Type of FU issued
system.cpu0.iq.FU_type_0::SimdFloatMisc             0      0.00%     54.97% # Type of FU issued
system.cpu0.iq.FU_type_0::SimdFloatMult             0      0.00%     54.97% # Type of FU issued
system.cpu0.iq.FU_type_0::SimdFloatMultAcc            0      0.00%     54.97% # Type of FU issued
system.cpu0.iq.FU_type_0::SimdFloatSqrt             0      0.00%     54.97% # Type of FU issued
system.cpu0.iq.FU_type_0::SimdReduceAdd             0      0.00%     54.97% # Type of FU issued
system.cpu0.iq.FU_type_0::SimdReduceAlu             0      0.00%     54.97% # Type of FU issued
system.cpu0.iq.FU_type_0::SimdReduceCmp             0      0.00%     54.97% # Type of FU issued
system.cpu0.iq.FU_type_0::SimdFloatReduceAdd            0      0.00%     54.97% # Type of FU issued
system.cpu0.iq.FU_type_0::SimdFloatReduceCmp            0      0.00%     54.97% # Type of FU issued
system.cpu0.iq.FU_type_0::SimdAes                   0      0.00%     54.97% # Type of FU issued
system.cpu0.iq.FU_type_0::SimdAesMix                0      0.00%     54.97% # Type of FU issued
system.cpu0.iq.FU_type_0::SimdSha1Hash              0      0.00%     54.97% # Type of FU issued
system.cpu0.iq.FU_type_0::SimdSha1Hash2             0      0.00%     54.97% # Type of FU issued
system.cpu0.iq.FU_type_0::SimdSha256Hash            0      0.00%     54.97% # Type of FU issued
system.cpu0.iq.FU_type_0::SimdSha256Hash2            0      0.00%     54.97% # Type of FU issued
system.cpu0.iq.FU_type_0::SimdShaSigma2             0      0.00%     54.97% # Type of FU issued
system.cpu0.iq.FU_type_0::SimdShaSigma3             0      0.00%     54.97% # Type of FU issued
system.cpu0.iq.FU_type_0::SimdPredAlu               0      0.00%     54.97% # Type of FU issued
system.cpu0.iq.FU_type_0::MemRead           199677156     32.44%     87.41% # Type of FU issued
system.cpu0.iq.FU_type_0::MemWrite           77529101     12.59%    100.00% # Type of FU issued
system.cpu0.iq.FU_type_0::FloatMemRead             10      0.00%    100.00% # Type of FU issued
system.cpu0.iq.FU_type_0::FloatMemWrite            20      0.00%    100.00% # Type of FU issued
system.cpu0.iq.FU_type_0::IprAccess                 0      0.00%    100.00% # Type of FU issued
system.cpu0.iq.FU_type_0::InstPrefetch              0      0.00%    100.00% # Type of FU issued
system.cpu0.iq.FU_type_0::total             615570126                       # Type of FU issued
system.cpu0.iq.fp_alu_accesses                     56                       # Number of floating point alu accesses
system.cpu0.iq.fp_inst_queue_reads                108                       # Number of floating instruction queue reads
system.cpu0.iq.fp_inst_queue_wakeup_accesses           52                       # Number of floating instruction queue wakeup accesses
system.cpu0.iq.fp_inst_queue_writes                54                       # Number of floating instruction queue writes
system.cpu0.iq.fu_busy_cnt                     722391                       # FU busy when requested
system.cpu0.iq.fu_busy_rate                  0.001174                       # FU busy rate (busy events/executed inst)
system.cpu0.iq.fu_full::No_OpClass                  0      0.00%      0.00% # attempts to use FU when none available
system.cpu0.iq.fu_full::IntAlu                 132351     18.32%     18.32% # attempts to use FU when none available
system.cpu0.iq.fu_full::IntMult                     3      0.00%     18.32% # attempts to use FU when none available
system.cpu0.iq.fu_full::IntDiv                      0      0.00%     18.32% # attempts to use FU when none available
system.cpu0.iq.fu_full::FloatAdd                    0      0.00%     18.32% # attempts to use FU when none available
system.cpu0.iq.fu_full::FloatCmp                    0      0.00%     18.32% # attempts to use FU when none available
system.cpu0.iq.fu_full::FloatCvt                    0      0.00%     18.32% # attempts to use FU when none available
system.cpu0.iq.fu_full::FloatMult                   0      0.00%     18.32% # attempts to use FU when none available
system.cpu0.iq.fu_full::FloatMultAcc                0      0.00%     18.32% # attempts to use FU when none available
system.cpu0.iq.fu_full::FloatDiv                    0      0.00%     18.32% # attempts to use FU when none available
system.cpu0.iq.fu_full::FloatMisc                   0      0.00%     18.32% # attempts to use FU when none available
system.cpu0.iq.fu_full::FloatSqrt                   0      0.00%     18.32% # attempts to use FU when none available
system.cpu0.iq.fu_full::SimdAdd                     0      0.00%     18.32% # attempts to use FU when none available
system.cpu0.iq.fu_full::SimdAddAcc                  0      0.00%     18.32% # attempts to use FU when none available
system.cpu0.iq.fu_full::SimdAlu                     0      0.00%     18.32% # attempts to use FU when none available
system.cpu0.iq.fu_full::SimdCmp                     0      0.00%     18.32% # attempts to use FU when none available
system.cpu0.iq.fu_full::SimdCvt                     0      0.00%     18.32% # attempts to use FU when none available
system.cpu0.iq.fu_full::SimdMisc                    0      0.00%     18.32% # attempts to use FU when none available
system.cpu0.iq.fu_full::SimdMult                    0      0.00%     18.32% # attempts to use FU when none available
system.cpu0.iq.fu_full::SimdMultAcc                 0      0.00%     18.32% # attempts to use FU when none available
system.cpu0.iq.fu_full::SimdShift                   0      0.00%     18.32% # attempts to use FU when none available
system.cpu0.iq.fu_full::SimdShiftAcc                0      0.00%     18.32% # attempts to use FU when none available
system.cpu0.iq.fu_full::SimdDiv                     0      0.00%     18.32% # attempts to use FU when none available
system.cpu0.iq.fu_full::SimdSqrt                    0      0.00%     18.32% # attempts to use FU when none available
system.cpu0.iq.fu_full::SimdFloatAdd                0      0.00%     18.32% # attempts to use FU when none available
system.cpu0.iq.fu_full::SimdFloatAlu                0      0.00%     18.32% # attempts to use FU when none available
system.cpu0.iq.fu_full::SimdFloatCmp                0      0.00%     18.32% # attempts to use FU when none available
system.cpu0.iq.fu_full::SimdFloatCvt                0      0.00%     18.32% # attempts to use FU when none available
system.cpu0.iq.fu_full::SimdFloatDiv                0      0.00%     18.32% # attempts to use FU when none available
system.cpu0.iq.fu_full::SimdFloatMisc               0      0.00%     18.32% # attempts to use FU when none available
system.cpu0.iq.fu_full::SimdFloatMult               0      0.00%     18.32% # attempts to use FU when none available
system.cpu0.iq.fu_full::SimdFloatMultAcc            0      0.00%     18.32% # attempts to use FU when none available
system.cpu0.iq.fu_full::SimdFloatSqrt               0      0.00%     18.32% # attempts to use FU when none available
system.cpu0.iq.fu_full::SimdReduceAdd               0      0.00%     18.32% # attempts to use FU when none available
system.cpu0.iq.fu_full::SimdReduceAlu               0      0.00%     18.32% # attempts to use FU when none available
system.cpu0.iq.fu_full::SimdReduceCmp               0      0.00%     18.32% # attempts to use FU when none available
system.cpu0.iq.fu_full::SimdFloatReduceAdd            0      0.00%     18.32% # attempts to use FU when none available
system.cpu0.iq.fu_full::SimdFloatReduceCmp            0      0.00%     18.32% # attempts to use FU when none available
system.cpu0.iq.fu_full::SimdAes                     0      0.00%     18.32% # attempts to use FU when none available
system.cpu0.iq.fu_full::SimdAesMix                  0      0.00%     18.32% # attempts to use FU when none available
system.cpu0.iq.fu_full::SimdSha1Hash                0      0.00%     18.32% # attempts to use FU when none available
system.cpu0.iq.fu_full::SimdSha1Hash2               0      0.00%     18.32% # attempts to use FU when none available
system.cpu0.iq.fu_full::SimdSha256Hash              0      0.00%     18.32% # attempts to use FU when none available
system.cpu0.iq.fu_full::SimdSha256Hash2             0      0.00%     18.32% # attempts to use FU when none available
system.cpu0.iq.fu_full::SimdShaSigma2               0      0.00%     18.32% # attempts to use FU when none available
system.cpu0.iq.fu_full::SimdShaSigma3               0      0.00%     18.32% # attempts to use FU when none available
system.cpu0.iq.fu_full::SimdPredAlu                 0      0.00%     18.32% # attempts to use FU when none available
system.cpu0.iq.fu_full::MemRead                504429     69.83%     88.15% # attempts to use FU when none available
system.cpu0.iq.fu_full::MemWrite                85604     11.85%    100.00% # attempts to use FU when none available
system.cpu0.iq.fu_full::FloatMemRead                0      0.00%    100.00% # attempts to use FU when none available
system.cpu0.iq.fu_full::FloatMemWrite               4      0.00%    100.00% # attempts to use FU when none available
system.cpu0.iq.fu_full::IprAccess                   0      0.00%    100.00% # attempts to use FU when none available
system.cpu0.iq.fu_full::InstPrefetch                0      0.00%    100.00% # attempts to use FU when none available
system.cpu0.iq.int_alu_accesses             615271483                       # Number of integer alu accesses
system.cpu0.iq.int_inst_queue_reads        2131334790                       # Number of integer instruction queue reads
system.cpu0.iq.int_inst_queue_wakeup_accesses    605188733                       # Number of integer instruction queue wakeup accesses
system.cpu0.iq.int_inst_queue_writes        670978228                       # Number of integer instruction queue writes
system.cpu0.iq.iqInstsAdded                 615115373                       # Number of instructions added to the IQ (excludes non-spec)
system.cpu0.iq.iqInstsIssued                615570126                       # Number of instructions issued
system.cpu0.iq.iqNonSpecInstsAdded            1532669                       # Number of non-speculative instructions added to the IQ
system.cpu0.iq.iqSquashedInstsExamined       54325560                       # Number of squashed instructions iterated over during squash; mainly for profiling
system.cpu0.iq.iqSquashedInstsIssued            52781                       # Number of squashed instructions issued
system.cpu0.iq.iqSquashedNonSpecRemoved           319                       # Number of squashed non-spec instructions that were removed
system.cpu0.iq.iqSquashedOperandsExamined     11594133                       # Number of squashed operands that are examined and possibly removed from graph
system.cpu0.iq.issued_per_cycle::samples    899419474                       # Number of insts issued each cycle
system.cpu0.iq.issued_per_cycle::mean        0.684408                       # Number of insts issued each cycle
system.cpu0.iq.issued_per_cycle::stdev       0.868006                       # Number of insts issued each cycle
system.cpu0.iq.issued_per_cycle::underflows            0      0.00%      0.00% # Number of insts issued each cycle
system.cpu0.iq.issued_per_cycle::0          470834658     52.35%     52.35% # Number of insts issued each cycle
system.cpu0.iq.issued_per_cycle::1          286759761     31.88%     84.23% # Number of insts issued each cycle
system.cpu0.iq.issued_per_cycle::2          104217925     11.59%     95.82% # Number of insts issued each cycle
system.cpu0.iq.issued_per_cycle::3           31291417      3.48%     99.30% # Number of insts issued each cycle
system.cpu0.iq.issued_per_cycle::4            5618908      0.62%     99.92% # Number of insts issued each cycle
system.cpu0.iq.issued_per_cycle::5             320033      0.04%     99.96% # Number of insts issued each cycle
system.cpu0.iq.issued_per_cycle::6             264591      0.03%     99.99% # Number of insts issued each cycle
system.cpu0.iq.issued_per_cycle::7              60527      0.01%     99.99% # Number of insts issued each cycle
system.cpu0.iq.issued_per_cycle::8              51654      0.01%    100.00% # Number of insts issued each cycle
system.cpu0.iq.issued_per_cycle::overflows            0      0.00%    100.00% # Number of insts issued each cycle
system.cpu0.iq.issued_per_cycle::min_value            0                       # Number of insts issued each cycle
system.cpu0.iq.issued_per_cycle::max_value            8                       # Number of insts issued each cycle
system.cpu0.iq.issued_per_cycle::total      899419474                       # Number of insts issued each cycle
system.cpu0.iq.rate                          0.636328                       # Inst issue rate
system.cpu0.iq.vec_alu_accesses                     0                       # Number of vector alu accesses
system.cpu0.iq.vec_inst_queue_reads                 0                       # Number of vector instruction queue reads
system.cpu0.iq.vec_inst_queue_wakeup_accesses            0                       # Number of vector instruction queue wakeup accesses
system.cpu0.iq.vec_inst_queue_writes                0                       # Number of vector instruction queue writes
system.cpu0.itb.accesses                            0                       # DTB accesses
system.cpu0.itb.hits                                0                       # DTB hits
system.cpu0.itb.misses                              0                       # DTB misses
system.cpu0.itb.read_accesses                       0                       # DTB read accesses
system.cpu0.itb.read_hits                           0                       # DTB read hits
system.cpu0.itb.read_misses                         0                       # DTB read misses
system.cpu0.itb.write_accesses                      0                       # DTB write accesses
system.cpu0.itb.write_hits                          0                       # DTB write hits
system.cpu0.itb.write_misses                        0                       # DTB write misses
system.cpu0.memDep0.conflictingLoads          7291759                       # Number of conflicting loads.
system.cpu0.memDep0.conflictingStores         1382109                       # Number of conflicting stores.
system.cpu0.memDep0.insertedLoads           197507250                       # Number of loads inserted to the mem dependence unit.
system.cpu0.memDep0.insertedStores           78644173                       # Number of stores inserted to the mem dependence unit.
system.cpu0.misc_regfile_reads                   1037                       # number of misc regfile reads
system.cpu0.misc_regfile_writes                    22                       # number of misc regfile writes
system.cpu0.numCycles                       967378171                       # number of cpu cycles simulated
system.cpu0.numWorkItemsCompleted                   0                       # number of work items this cpu completed
system.cpu0.numWorkItemsStarted                     0                       # number of work items this cpu started
system.cpu0.quiesceCycles                    11300634                       # Total number of cycles that CPU has spent quiesced or waiting for an interrupt
system.cpu0.rename.BlockCycles               95250155                       # Number of cycles rename is blocking
system.cpu0.rename.CommittedMaps            357830909                       # Number of HB maps that are committed
system.cpu0.rename.IQFullEvents               3514869                       # Number of times rename has blocked due to IQ full
system.cpu0.rename.IdleCycles               354213629                       # Number of cycles rename is idle
system.cpu0.rename.LQFullEvents               3327668                       # Number of times rename has blocked due to LQ full
system.cpu0.rename.ROBFullEvents                 8847                       # Number of times rename has blocked due to ROB full
system.cpu0.rename.RenameLookups            762302965                       # Number of register rename lookups that rename has made
system.cpu0.rename.RenamedInsts             625256455                       # Number of instructions processed by rename
system.cpu0.rename.RenamedOperands          401259327                       # Number of destination operands rename has renamed
system.cpu0.rename.RunCycles                432711551                       # Number of cycles rename is running
system.cpu0.rename.SQFullEvents               4682186                       # Number of times rename has blocked due to SQ full
system.cpu0.rename.SquashCycles               5587488                       # Number of cycles rename is squashing
system.cpu0.rename.UnblockCycles             11557316                       # Number of cycles rename is unblocking
system.cpu0.rename.UndoneMaps                43428414                       # Number of HB maps that are undone due to squashing
system.cpu0.rename.fp_rename_lookups               44                       # Number of floating rename lookups
system.cpu0.rename.int_rename_lookups       762302921                       # Number of integer rename lookups
system.cpu0.rename.serializeStallCycles         99335                       # count of cycles rename stalled for serializing inst
system.cpu0.rename.serializingInsts              3155                       # count of serializing insts renamed
system.cpu0.rename.skidInsts                  7568348                       # count of insts added to the skid buffer
system.cpu0.rename.tempSerializingInsts          3141                       # count of temporary serializing insts renamed
system.cpu0.rob.rob_reads                  1488256836                       # The number of ROB reads
system.cpu0.rob.rob_writes                 1243915317                       # The number of ROB writes
system.cpu0.timesIdled                       11197103                       # Number of times that the entire CPU went into an idle state and unscheduled itself
system.cpu0.workload.numSyscalls                 1004                       # Number of system calls
system.cpu1.branchPred.BTBCorrect                   0                       # Number of correct BTB predictions (this stat may not work properly.
system.cpu1.branchPred.BTBHitPct            85.327478                       # BTB Hit Percentage
system.cpu1.branchPred.BTBHits                4257249                       # Number of BTB hits
system.cpu1.branchPred.BTBLookups             4989306                       # Number of BTB lookups
system.cpu1.branchPred.RASInCorrect                 0                       # Number of incorrect RAS predictions.
system.cpu1.branchPred.condIncorrect           890366                       # Number of conditional branches incorrect
system.cpu1.branchPred.condPredicted          6787662                       # Number of conditional branches predicted
system.cpu1.branchPred.indirectHits            136211                       # Number of indirect target hits.
system.cpu1.branchPred.indirectLookups         139190                       # Number of indirect predictor lookups.
system.cpu1.branchPred.indirectMisses            2979                       # Number of indirect misses.
system.cpu1.branchPred.lookups                7776256                       # Number of BP lookups
system.cpu1.branchPred.usedRAS                      0                       # Number of times the RAS was used to get a target.
system.cpu1.branchPredindirectMispredicted         8749                       # Number of mispredicted indirect branches.
system.cpu1.commit.amos                        509192                       # Number of atomic instructions committed
system.cpu1.commit.branchMispredicts           537591                       # The number of times a branch was mispredicted
system.cpu1.commit.branches                   4420348                       # Number of branches committed
system.cpu1.commit.bw_lim_events               439206                       # number cycles where commit BW limit reached
system.cpu1.commit.commitNonSpecStalls        1528271                       # The number of times commit has been forced to stall to communicate backwards
system.cpu1.commit.commitSquashedInsts       10481498                       # The number of squashed insts skipped by commit
system.cpu1.commit.committedInsts            19247346                       # Number of instructions committed
system.cpu1.commit.committedOps              19756755                       # Number of ops (including micro ops) committed
system.cpu1.commit.committed_per_cycle::samples    110740014                       # Number of insts commited each cycle
system.cpu1.commit.committed_per_cycle::mean     0.178407                       # Number of insts commited each cycle
system.cpu1.commit.committed_per_cycle::stdev     0.822878                       # Number of insts commited each cycle
system.cpu1.commit.committed_per_cycle::underflows            0      0.00%      0.00% # Number of insts commited each cycle
system.cpu1.commit.committed_per_cycle::0    102345527     92.42%     92.42% # Number of insts commited each cycle
system.cpu1.commit.committed_per_cycle::1      4227544      3.82%     96.24% # Number of insts commited each cycle
system.cpu1.commit.committed_per_cycle::2      1434854      1.30%     97.53% # Number of insts commited each cycle
system.cpu1.commit.committed_per_cycle::3      1304950      1.18%     98.71% # Number of insts commited each cycle
system.cpu1.commit.committed_per_cycle::4       324810      0.29%     99.00% # Number of insts commited each cycle
system.cpu1.commit.committed_per_cycle::5       115255      0.10%     99.11% # Number of insts commited each cycle
system.cpu1.commit.committed_per_cycle::6       479586      0.43%     99.54% # Number of insts commited each cycle
system.cpu1.commit.committed_per_cycle::7        68282      0.06%     99.60% # Number of insts commited each cycle
system.cpu1.commit.committed_per_cycle::8       439206      0.40%    100.00% # Number of insts commited each cycle
system.cpu1.commit.committed_per_cycle::overflows            0      0.00%    100.00% # Number of insts commited each cycle
system.cpu1.commit.committed_per_cycle::min_value            0                       # Number of insts commited each cycle
system.cpu1.commit.committed_per_cycle::max_value            8                       # Number of insts commited each cycle
system.cpu1.commit.committed_per_cycle::total    110740014                       # Number of insts commited each cycle
system.cpu1.commit.fp_insts                        12                       # Number of committed floating point instructions.
system.cpu1.commit.function_calls              227553                       # Number of function calls committed.
system.cpu1.commit.int_insts                 18556027                       # Number of committed integer instructions.
system.cpu1.commit.loads                      5320806                       # Number of loads committed
system.cpu1.commit.membars                    1018460                       # Number of memory barriers committed
system.cpu1.commit.op_class_0::No_OpClass      1018460      5.15%      5.15% # Class of committed instruction
system.cpu1.commit.op_class_0::IntAlu        11648211     58.96%     64.11% # Class of committed instruction
system.cpu1.commit.op_class_0::IntMult             42      0.00%     64.11% # Class of committed instruction
system.cpu1.commit.op_class_0::IntDiv              84      0.00%     64.11% # Class of committed instruction
system.cpu1.commit.op_class_0::FloatAdd             0      0.00%     64.11% # Class of committed instruction
system.cpu1.commit.op_class_0::FloatCmp             0      0.00%     64.11% # Class of committed instruction
system.cpu1.commit.op_class_0::FloatCvt             0      0.00%     64.11% # Class of committed instruction
system.cpu1.commit.op_class_0::FloatMult            0      0.00%     64.11% # Class of committed instruction
system.cpu1.commit.op_class_0::FloatMultAcc            0      0.00%     64.11% # Class of committed instruction
system.cpu1.commit.op_class_0::FloatDiv             0      0.00%     64.11% # Class of committed instruction
system.cpu1.commit.op_class_0::FloatMisc            0      0.00%     64.11% # Class of committed instruction
system.cpu1.commit.op_class_0::FloatSqrt            0      0.00%     64.11% # Class of committed instruction
system.cpu1.commit.op_class_0::SimdAdd              0      0.00%     64.11% # Class of committed instruction
system.cpu1.commit.op_class_0::SimdAddAcc            0      0.00%     64.11% # Class of committed instruction
system.cpu1.commit.op_class_0::SimdAlu              0      0.00%     64.11% # Class of committed instruction
system.cpu1.commit.op_class_0::SimdCmp              0      0.00%     64.11% # Class of committed instruction
system.cpu1.commit.op_class_0::SimdCvt              0      0.00%     64.11% # Class of committed instruction
system.cpu1.commit.op_class_0::SimdMisc             0      0.00%     64.11% # Class of committed instruction
system.cpu1.commit.op_class_0::SimdMult             0      0.00%     64.11% # Class of committed instruction
system.cpu1.commit.op_class_0::SimdMultAcc            0      0.00%     64.11% # Class of committed instruction
system.cpu1.commit.op_class_0::SimdShift            0      0.00%     64.11% # Class of committed instruction
system.cpu1.commit.op_class_0::SimdShiftAcc            0      0.00%     64.11% # Class of committed instruction
system.cpu1.commit.op_class_0::SimdDiv              0      0.00%     64.11% # Class of committed instruction
system.cpu1.commit.op_class_0::SimdSqrt             0      0.00%     64.11% # Class of committed instruction
system.cpu1.commit.op_class_0::SimdFloatAdd            0      0.00%     64.11% # Class of committed instruction
system.cpu1.commit.op_class_0::SimdFloatAlu            0      0.00%     64.11% # Class of committed instruction
system.cpu1.commit.op_class_0::SimdFloatCmp            0      0.00%     64.11% # Class of committed instruction
system.cpu1.commit.op_class_0::SimdFloatCvt            0      0.00%     64.11% # Class of committed instruction
system.cpu1.commit.op_class_0::SimdFloatDiv            0      0.00%     64.11% # Class of committed instruction
system.cpu1.commit.op_class_0::SimdFloatMisc            0      0.00%     64.11% # Class of committed instruction
system.cpu1.commit.op_class_0::SimdFloatMult            0      0.00%     64.11% # Class of committed instruction
system.cpu1.commit.op_class_0::SimdFloatMultAcc            0      0.00%     64.11% # Class of committed instruction
system.cpu1.commit.op_class_0::SimdFloatSqrt            0      0.00%     64.11% # Class of committed instruction
system.cpu1.commit.op_class_0::SimdReduceAdd            0      0.00%     64.11% # Class of committed instruction
system.cpu1.commit.op_class_0::SimdReduceAlu            0      0.00%     64.11% # Class of committed instruction
system.cpu1.commit.op_class_0::SimdReduceCmp            0      0.00%     64.11% # Class of committed instruction
system.cpu1.commit.op_class_0::SimdFloatReduceAdd            0      0.00%     64.11% # Class of committed instruction
system.cpu1.commit.op_class_0::SimdFloatReduceCmp            0      0.00%     64.11% # Class of committed instruction
system.cpu1.commit.op_class_0::SimdAes              0      0.00%     64.11% # Class of committed instruction
system.cpu1.commit.op_class_0::SimdAesMix            0      0.00%     64.11% # Class of committed instruction
system.cpu1.commit.op_class_0::SimdSha1Hash            0      0.00%     64.11% # Class of committed instruction
system.cpu1.commit.op_class_0::SimdSha1Hash2            0      0.00%     64.11% # Class of committed instruction
system.cpu1.commit.op_class_0::SimdSha256Hash            0      0.00%     64.11% # Class of committed instruction
system.cpu1.commit.op_class_0::SimdSha256Hash2            0      0.00%     64.11% # Class of committed instruction
system.cpu1.commit.op_class_0::SimdShaSigma2            0      0.00%     64.11% # Class of committed instruction
system.cpu1.commit.op_class_0::SimdShaSigma3            0      0.00%     64.11% # Class of committed instruction
system.cpu1.commit.op_class_0::SimdPredAlu            0      0.00%     64.11% # Class of committed instruction
system.cpu1.commit.op_class_0::MemRead        5829998     29.51%     93.62% # Class of committed instruction
system.cpu1.commit.op_class_0::MemWrite       1259948      6.38%    100.00% # Class of committed instruction
system.cpu1.commit.op_class_0::FloatMemRead            0      0.00%    100.00% # Class of committed instruction
system.cpu1.commit.op_class_0::FloatMemWrite           12      0.00%    100.00% # Class of committed instruction
system.cpu1.commit.op_class_0::IprAccess            0      0.00%    100.00% # Class of committed instruction
system.cpu1.commit.op_class_0::InstPrefetch            0      0.00%    100.00% # Class of committed instruction
system.cpu1.commit.op_class_0::total         19756755                       # Class of committed instruction
system.cpu1.commit.refs                       7089958                       # Number of memory references committed
system.cpu1.commit.swp_count                        0                       # Number of s/w prefetches committed
system.cpu1.commit.vec_insts                        0                       # Number of committed Vector instructions.
system.cpu1.committedInsts                   19247346                       # Number of Instructions Simulated
system.cpu1.committedOps                     19756755                       # Number of Ops (including micro ops) Simulated
system.cpu1.cpi                              5.879588                       # CPI: Cycles Per Instruction
system.cpu1.cpi_total                        5.879588                       # CPI: Total CPI of All Threads
system.cpu1.decode.BlockedCycles             91064999                       # Number of cycles decode is blocked
system.cpu1.decode.BranchMispred               358148                       # Number of times decode detected a branch misprediction
system.cpu1.decode.BranchResolved             3655784                       # Number of times decode resolved a branch
system.cpu1.decode.DecodedInsts              32443674                       # Number of instructions handled by decode
system.cpu1.decode.IdleCycles                 6003005                       # Number of cycles decode is idle
system.cpu1.decode.RunCycles                 13680655                       # Number of cycles decode is running
system.cpu1.decode.SquashCycles                538024                       # Number of cycles decode is squashing
system.cpu1.decode.SquashedInsts               416534                       # Number of squashed instructions handled by decode
system.cpu1.decode.UnblockCycles              1177269                       # Number of cycles decode is unblocking
system.cpu1.dtb.accesses                            0                       # DTB accesses
system.cpu1.dtb.hits                                0                       # DTB hits
system.cpu1.dtb.misses                              0                       # DTB misses
system.cpu1.dtb.read_accesses                       0                       # DTB read accesses
system.cpu1.dtb.read_hits                           0                       # DTB read hits
system.cpu1.dtb.read_misses                         0                       # DTB read misses
system.cpu1.dtb.write_accesses                      0                       # DTB write accesses
system.cpu1.dtb.write_hits                          0                       # DTB write hits
system.cpu1.dtb.write_misses                        0                       # DTB write misses
system.cpu1.fetch.Branches                    7776256                       # Number of branches that fetch encountered
system.cpu1.fetch.CacheLines                  5734367                       # Number of cache lines fetched
system.cpu1.fetch.Cycles                    105151138                       # Number of cycles fetch has run and was not squashing or blocked
system.cpu1.fetch.IcacheSquashes                95811                       # Number of outstanding Icache misses that were squashed
system.cpu1.fetch.IcacheWaitRetryStallCycles           16                       # Number of stall cycles due to full MSHR
system.cpu1.fetch.Insts                      36598638                       # Number of instructions fetch has processed
system.cpu1.fetch.MiscStallCycles                   2                       # Number of cycles fetch has spent waiting on interrupts, or bad addresses, or out of MSHRs
system.cpu1.fetch.SquashCycles                1781598                       # Number of cycles fetch has spent squashing
system.cpu1.fetch.branchRate                 0.068715                       # Number of branch fetches per cycle
system.cpu1.fetch.icacheStallCycles           6421997                       # Number of cycles fetch is stalled on an Icache miss
system.cpu1.fetch.predictedBranches           4393460                       # Number of branches that fetch has predicted taken
system.cpu1.fetch.rate                       0.323405                       # Number of inst fetches per cycle
system.cpu1.fetch.rateDist::samples         112463952                       # Number of instructions fetched each cycle (Total)
system.cpu1.fetch.rateDist::mean             0.337681                       # Number of instructions fetched each cycle (Total)
system.cpu1.fetch.rateDist::stdev            0.835116                       # Number of instructions fetched each cycle (Total)
system.cpu1.fetch.rateDist::underflows              0      0.00%      0.00% # Number of instructions fetched each cycle (Total)
system.cpu1.fetch.rateDist::0                89901062     79.94%     79.94% # Number of instructions fetched each cycle (Total)
system.cpu1.fetch.rateDist::1                13679845     12.16%     92.10% # Number of instructions fetched each cycle (Total)
system.cpu1.fetch.rateDist::2                 5233280      4.65%     96.75% # Number of instructions fetched each cycle (Total)
system.cpu1.fetch.rateDist::3                 2137822      1.90%     98.66% # Number of instructions fetched each cycle (Total)
system.cpu1.fetch.rateDist::4                  587348      0.52%     99.18% # Number of instructions fetched each cycle (Total)
system.cpu1.fetch.rateDist::5                  480206      0.43%     99.60% # Number of instructions fetched each cycle (Total)
system.cpu1.fetch.rateDist::6                  444224      0.39%    100.00% # Number of instructions fetched each cycle (Total)
system.cpu1.fetch.rateDist::7                       9      0.00%    100.00% # Number of instructions fetched each cycle (Total)
system.cpu1.fetch.rateDist::8                     156      0.00%    100.00% # Number of instructions fetched each cycle (Total)
system.cpu1.fetch.rateDist::overflows               0      0.00%    100.00% # Number of instructions fetched each cycle (Total)
system.cpu1.fetch.rateDist::min_value               0                       # Number of instructions fetched each cycle (Total)
system.cpu1.fetch.rateDist::max_value               8                       # Number of instructions fetched each cycle (Total)
system.cpu1.fetch.rateDist::total           112463952                       # Number of instructions fetched each cycle (Total)
system.cpu1.fp_regfile_reads                       12                       # number of floating regfile reads
system.cpu1.idleCycles                         702505                       # Total number of cycles that the CPU has spent unscheduled due to idling
system.cpu1.iew.branchMispredicts              556207                       # Number of branch mispredicts detected at execute
system.cpu1.iew.exec_branches                 5496458                       # Number of branches executed
system.cpu1.iew.exec_nop                            0                       # number of nop insts executed
system.cpu1.iew.exec_rate                    0.200356                       # Inst execution rate
system.cpu1.iew.exec_refs                     7701527                       # number of memory reference insts executed
system.cpu1.iew.exec_stores                   1851341                       # Number of stores executed
system.cpu1.iew.exec_swp                            0                       # number of swp insts executed
system.cpu1.iew.iewBlockCycles               79895914                       # Number of cycles IEW is blocking
system.cpu1.iew.iewDispLoadInsts              8419875                       # Number of dispatched load instructions
system.cpu1.iew.iewDispNonSpecInsts           1010799                       # Number of dispatched non-speculative instructions
system.cpu1.iew.iewDispSquashedInsts           308790                       # Number of squashed instructions skipped by dispatch
system.cpu1.iew.iewDispStoreInsts             2923885                       # Number of dispatched store instructions
system.cpu1.iew.iewDispatchedInsts           30232860                       # Number of instructions dispatched to IQ
system.cpu1.iew.iewExecLoadInsts              5850186                       # Number of load instructions executed
system.cpu1.iew.iewExecSquashedInsts           271007                       # Number of squashed instructions skipped in execute
system.cpu1.iew.iewExecutedInsts             22673592                       # Number of executed instructions
system.cpu1.iew.iewIQFullEvents                434617                       # Number of times the IQ has become full, causing a stall
system.cpu1.iew.iewIdleCycles                       0                       # Number of cycles IEW is idle
system.cpu1.iew.iewLSQFullEvents               916517                       # Number of times the LSQ has become full, causing a stall
system.cpu1.iew.iewSquashCycles                538024                       # Number of cycles IEW is squashing
system.cpu1.iew.iewUnblockCycles              1936184                       # Number of cycles IEW is unblocking
system.cpu1.iew.lsq.thread0.blockedLoads            0                       # Number of blocked loads due to partial load-store forwarding
system.cpu1.iew.lsq.thread0.cacheBlocked        12916                       # Number of times an access to memory failed due to the cache being blocked
system.cpu1.iew.lsq.thread0.forwLoads          137722                       # Number of loads that had data forwarded from stores
system.cpu1.iew.lsq.thread0.ignoredResponses         6690                       # Number of memory responses ignored because the instruction is squashed
system.cpu1.iew.lsq.thread0.invAddrLoads            0                       # Number of loads ignored due to an invalid address
system.cpu1.iew.lsq.thread0.invAddrSwpfs            0                       # Number of software prefetches ignored due to an invalid address
system.cpu1.iew.lsq.thread0.memOrderViolation          433                       # Number of memory ordering violations
system.cpu1.iew.lsq.thread0.rescheduledLoads          997                       # Number of loads that were rescheduled
system.cpu1.iew.lsq.thread0.squashedLoads      3099069                       # Number of loads squashed
system.cpu1.iew.lsq.thread0.squashedStores      1154733                       # Number of stores squashed
system.cpu1.iew.memOrderViolationEvents           433                       # Number of memory order violations
system.cpu1.iew.predictedNotTakenIncorrect        91355                       # Number of branches that were predicted not taken incorrectly
system.cpu1.iew.predictedTakenIncorrect        464852                       # Number of branches that were predicted taken incorrectly
system.cpu1.iew.wb_consumers                 12911592                       # num instructions consuming a value
system.cpu1.iew.wb_count                     22434546                       # cumulative count of insts written-back
system.cpu1.iew.wb_fanout                    0.821572                       # average fanout of values written-back
system.cpu1.iew.wb_producers                 10607804                       # num instructions producing a value
system.cpu1.iew.wb_rate                      0.198244                       # insts written-back per cycle
system.cpu1.iew.wb_sent                      22442174                       # cumulative count of insts sent to commit
system.cpu1.int_regfile_reads                28542428                       # number of integer regfile reads
system.cpu1.int_regfile_writes               14711081                       # number of integer regfile writes
system.cpu1.ipc                              0.170080                       # IPC: Instructions Per Cycle
system.cpu1.ipc_total                        0.170080                       # IPC: Total IPC of All Threads
system.cpu1.iq.FU_type_0::No_OpClass          1018669      4.44%      4.44% # Type of FU issued
system.cpu1.iq.FU_type_0::IntAlu             14139091     61.62%     66.06% # Type of FU issued
system.cpu1.iq.FU_type_0::IntMult                  47      0.00%     66.06% # Type of FU issued
system.cpu1.iq.FU_type_0::IntDiv                   86      0.00%     66.06% # Type of FU issued
system.cpu1.iq.FU_type_0::FloatAdd                  0      0.00%     66.06% # Type of FU issued
system.cpu1.iq.FU_type_0::FloatCmp                  0      0.00%     66.06% # Type of FU issued
system.cpu1.iq.FU_type_0::FloatCvt                  0      0.00%     66.06% # Type of FU issued
system.cpu1.iq.FU_type_0::FloatMult                 0      0.00%     66.06% # Type of FU issued
system.cpu1.iq.FU_type_0::FloatMultAcc              0      0.00%     66.06% # Type of FU issued
system.cpu1.iq.FU_type_0::FloatDiv                  0      0.00%     66.06% # Type of FU issued
system.cpu1.iq.FU_type_0::FloatMisc                 0      0.00%     66.06% # Type of FU issued
system.cpu1.iq.FU_type_0::FloatSqrt                 0      0.00%     66.06% # Type of FU issued
system.cpu1.iq.FU_type_0::SimdAdd                   0      0.00%     66.06% # Type of FU issued
system.cpu1.iq.FU_type_0::SimdAddAcc                0      0.00%     66.06% # Type of FU issued
system.cpu1.iq.FU_type_0::SimdAlu                   0      0.00%     66.06% # Type of FU issued
system.cpu1.iq.FU_type_0::SimdCmp                   0      0.00%     66.06% # Type of FU issued
system.cpu1.iq.FU_type_0::SimdCvt                   0      0.00%     66.06% # Type of FU issued
system.cpu1.iq.FU_type_0::SimdMisc                  0      0.00%     66.06% # Type of FU issued
system.cpu1.iq.FU_type_0::SimdMult                  0      0.00%     66.06% # Type of FU issued
system.cpu1.iq.FU_type_0::SimdMultAcc               0      0.00%     66.06% # Type of FU issued
system.cpu1.iq.FU_type_0::SimdShift                 0      0.00%     66.06% # Type of FU issued
system.cpu1.iq.FU_type_0::SimdShiftAcc              0      0.00%     66.06% # Type of FU issued
system.cpu1.iq.FU_type_0::SimdDiv                   0      0.00%     66.06% # Type of FU issued
system.cpu1.iq.FU_type_0::SimdSqrt                  0      0.00%     66.06% # Type of FU issued
system.cpu1.iq.FU_type_0::SimdFloatAdd              0      0.00%     66.06% # Type of FU issued
system.cpu1.iq.FU_type_0::SimdFloatAlu              0      0.00%     66.06% # Type of FU issued
system.cpu1.iq.FU_type_0::SimdFloatCmp              0      0.00%     66.06% # Type of FU issued
system.cpu1.iq.FU_type_0::SimdFloatCvt              0      0.00%     66.06% # Type of FU issued
system.cpu1.iq.FU_type_0::SimdFloatDiv              0      0.00%     66.06% # Type of FU issued
system.cpu1.iq.FU_type_0::SimdFloatMisc             0      0.00%     66.06% # Type of FU issued
system.cpu1.iq.FU_type_0::SimdFloatMult             0      0.00%     66.06% # Type of FU issued
system.cpu1.iq.FU_type_0::SimdFloatMultAcc            0      0.00%     66.06% # Type of FU issued
system.cpu1.iq.FU_type_0::SimdFloatSqrt             0      0.00%     66.06% # Type of FU issued
system.cpu1.iq.FU_type_0::SimdReduceAdd             0      0.00%     66.06% # Type of FU issued
system.cpu1.iq.FU_type_0::SimdReduceAlu             0      0.00%     66.06% # Type of FU issued
system.cpu1.iq.FU_type_0::SimdReduceCmp             0      0.00%     66.06% # Type of FU issued
system.cpu1.iq.FU_type_0::SimdFloatReduceAdd            0      0.00%     66.06% # Type of FU issued
system.cpu1.iq.FU_type_0::SimdFloatReduceCmp            0      0.00%     66.06% # Type of FU issued
system.cpu1.iq.FU_type_0::SimdAes                   0      0.00%     66.06% # Type of FU issued
system.cpu1.iq.FU_type_0::SimdAesMix                0      0.00%     66.06% # Type of FU issued
system.cpu1.iq.FU_type_0::SimdSha1Hash              0      0.00%     66.06% # Type of FU issued
system.cpu1.iq.FU_type_0::SimdSha1Hash2             0      0.00%     66.06% # Type of FU issued
system.cpu1.iq.FU_type_0::SimdSha256Hash            0      0.00%     66.06% # Type of FU issued
system.cpu1.iq.FU_type_0::SimdSha256Hash2            0      0.00%     66.06% # Type of FU issued
system.cpu1.iq.FU_type_0::SimdShaSigma2             0      0.00%     66.06% # Type of FU issued
system.cpu1.iq.FU_type_0::SimdShaSigma3             0      0.00%     66.06% # Type of FU issued
system.cpu1.iq.FU_type_0::SimdPredAlu               0      0.00%     66.06% # Type of FU issued
system.cpu1.iq.FU_type_0::MemRead             6428982     28.02%     94.08% # Type of FU issued
system.cpu1.iq.FU_type_0::MemWrite            1357712      5.92%    100.00% # Type of FU issued
system.cpu1.iq.FU_type_0::FloatMemRead              0      0.00%    100.00% # Type of FU issued
system.cpu1.iq.FU_type_0::FloatMemWrite            12      0.00%    100.00% # Type of FU issued
system.cpu1.iq.FU_type_0::IprAccess                 0      0.00%    100.00% # Type of FU issued
system.cpu1.iq.FU_type_0::InstPrefetch              0      0.00%    100.00% # Type of FU issued
system.cpu1.iq.FU_type_0::total              22944599                       # Type of FU issued
system.cpu1.iq.fp_alu_accesses                     16                       # Number of floating point alu accesses
system.cpu1.iq.fp_inst_queue_reads                 28                       # Number of floating instruction queue reads
system.cpu1.iq.fp_inst_queue_wakeup_accesses           12                       # Number of floating instruction queue wakeup accesses
system.cpu1.iq.fp_inst_queue_writes                12                       # Number of floating instruction queue writes
system.cpu1.iq.fu_busy_cnt                     563595                       # FU busy when requested
system.cpu1.iq.fu_busy_rate                  0.024563                       # FU busy rate (busy events/executed inst)
system.cpu1.iq.fu_full::No_OpClass                  0      0.00%      0.00% # attempts to use FU when none available
system.cpu1.iq.fu_full::IntAlu                 103614     18.38%     18.38% # attempts to use FU when none available
system.cpu1.iq.fu_full::IntMult                     0      0.00%     18.38% # attempts to use FU when none available
system.cpu1.iq.fu_full::IntDiv                      0      0.00%     18.38% # attempts to use FU when none available
system.cpu1.iq.fu_full::FloatAdd                    0      0.00%     18.38% # attempts to use FU when none available
system.cpu1.iq.fu_full::FloatCmp                    0      0.00%     18.38% # attempts to use FU when none available
system.cpu1.iq.fu_full::FloatCvt                    0      0.00%     18.38% # attempts to use FU when none available
system.cpu1.iq.fu_full::FloatMult                   0      0.00%     18.38% # attempts to use FU when none available
system.cpu1.iq.fu_full::FloatMultAcc                0      0.00%     18.38% # attempts to use FU when none available
system.cpu1.iq.fu_full::FloatDiv                    0      0.00%     18.38% # attempts to use FU when none available
system.cpu1.iq.fu_full::FloatMisc                   0      0.00%     18.38% # attempts to use FU when none available
system.cpu1.iq.fu_full::FloatSqrt                   0      0.00%     18.38% # attempts to use FU when none available
system.cpu1.iq.fu_full::SimdAdd                     0      0.00%     18.38% # attempts to use FU when none available
system.cpu1.iq.fu_full::SimdAddAcc                  0      0.00%     18.38% # attempts to use FU when none available
system.cpu1.iq.fu_full::SimdAlu                     0      0.00%     18.38% # attempts to use FU when none available
system.cpu1.iq.fu_full::SimdCmp                     0      0.00%     18.38% # attempts to use FU when none available
system.cpu1.iq.fu_full::SimdCvt                     0      0.00%     18.38% # attempts to use FU when none available
system.cpu1.iq.fu_full::SimdMisc                    0      0.00%     18.38% # attempts to use FU when none available
system.cpu1.iq.fu_full::SimdMult                    0      0.00%     18.38% # attempts to use FU when none available
system.cpu1.iq.fu_full::SimdMultAcc                 0      0.00%     18.38% # attempts to use FU when none available
system.cpu1.iq.fu_full::SimdShift                   0      0.00%     18.38% # attempts to use FU when none available
system.cpu1.iq.fu_full::SimdShiftAcc                0      0.00%     18.38% # attempts to use FU when none available
system.cpu1.iq.fu_full::SimdDiv                     0      0.00%     18.38% # attempts to use FU when none available
system.cpu1.iq.fu_full::SimdSqrt                    0      0.00%     18.38% # attempts to use FU when none available
system.cpu1.iq.fu_full::SimdFloatAdd                0      0.00%     18.38% # attempts to use FU when none available
system.cpu1.iq.fu_full::SimdFloatAlu                0      0.00%     18.38% # attempts to use FU when none available
system.cpu1.iq.fu_full::SimdFloatCmp                0      0.00%     18.38% # attempts to use FU when none available
system.cpu1.iq.fu_full::SimdFloatCvt                0      0.00%     18.38% # attempts to use FU when none available
system.cpu1.iq.fu_full::SimdFloatDiv                0      0.00%     18.38% # attempts to use FU when none available
system.cpu1.iq.fu_full::SimdFloatMisc               0      0.00%     18.38% # attempts to use FU when none available
system.cpu1.iq.fu_full::SimdFloatMult               0      0.00%     18.38% # attempts to use FU when none available
system.cpu1.iq.fu_full::SimdFloatMultAcc            0      0.00%     18.38% # attempts to use FU when none available
system.cpu1.iq.fu_full::SimdFloatSqrt               0      0.00%     18.38% # attempts to use FU when none available
system.cpu1.iq.fu_full::SimdReduceAdd               0      0.00%     18.38% # attempts to use FU when none available
system.cpu1.iq.fu_full::SimdReduceAlu               0      0.00%     18.38% # attempts to use FU when none available
system.cpu1.iq.fu_full::SimdReduceCmp               0      0.00%     18.38% # attempts to use FU when none available
system.cpu1.iq.fu_full::SimdFloatReduceAdd            0      0.00%     18.38% # attempts to use FU when none available
system.cpu1.iq.fu_full::SimdFloatReduceCmp            0      0.00%     18.38% # attempts to use FU when none available
system.cpu1.iq.fu_full::SimdAes                     0      0.00%     18.38% # attempts to use FU when none available
system.cpu1.iq.fu_full::SimdAesMix                  0      0.00%     18.38% # attempts to use FU when none available
system.cpu1.iq.fu_full::SimdSha1Hash                0      0.00%     18.38% # attempts to use FU when none available
system.cpu1.iq.fu_full::SimdSha1Hash2               0      0.00%     18.38% # attempts to use FU when none available
system.cpu1.iq.fu_full::SimdSha256Hash              0      0.00%     18.38% # attempts to use FU when none available
system.cpu1.iq.fu_full::SimdSha256Hash2             0      0.00%     18.38% # attempts to use FU when none available
system.cpu1.iq.fu_full::SimdShaSigma2               0      0.00%     18.38% # attempts to use FU when none available
system.cpu1.iq.fu_full::SimdShaSigma3               0      0.00%     18.38% # attempts to use FU when none available
system.cpu1.iq.fu_full::SimdPredAlu                 0      0.00%     18.38% # attempts to use FU when none available
system.cpu1.iq.fu_full::MemRead                413013     73.28%     91.67% # attempts to use FU when none available
[...]
system.cpu1.dcache.WriteReq_mshr_miss_rate::total     0.040537                       # mshr miss rate for WriteReq accesses
system.cpu1.dcache.WriteReq_avg_mshr_miss_latency::.cpu1.data 78592.476184                       # average WriteReq mshr miss latency
system.cpu1.dcache.WriteReq_avg_mshr_miss_latency::total 78592.476184                       # average WriteReq mshr miss latency
system.cpu1.dcache.LoadLockedReq_hits::.cpu1.data        30704                       # number of LoadLockedReq hits
system.cpu1.dcache.LoadLockedReq_hits::total        30704                       # number of LoadLockedReq hits
system.cpu1.dcache.LoadLockedReq_misses::.cpu1.data         1597                       # number of LoadLockedReq misses
system.cpu1.dcache.LoadLockedReq_misses::total         1597                       # number of LoadLockedReq misses
system.cpu1.dcache.LoadLockedReq_miss_latency::.cpu1.data     39797000                       # number of LoadLockedReq miss cycles
system.cpu1.dcache.LoadLockedReq_miss_latency::total     39797000                       # number of LoadLockedReq miss cycles
system.cpu1.dcache.LoadLockedReq_accesses::.cpu1.data        32301                       # number of LoadLockedReq accesses(hits+misses)
system.cpu1.dcache.LoadLockedReq_accesses::total        32301                       # number of LoadLockedReq accesses(hits+misses)
system.cpu1.dcache.LoadLockedReq_miss_rate::.cpu1.data     0.049441                       # miss rate for LoadLockedReq accesses
system.cpu1.dcache.LoadLockedReq_miss_rate::total     0.049441                       # miss rate for LoadLockedReq accesses
system.cpu1.dcache.LoadLockedReq_avg_miss_latency::.cpu1.data 24919.849718                       # average LoadLockedReq miss latency
system.cpu1.dcache.LoadLockedReq_avg_miss_latency::total 24919.849718                       # average LoadLockedReq miss latency
system.cpu1.dcache.LoadLockedReq_mshr_hits::.cpu1.data          468                       # number of LoadLockedReq MSHR hits
system.cpu1.dcache.LoadLockedReq_mshr_hits::total          468                       # number of LoadLockedReq MSHR hits
system.cpu1.dcache.LoadLockedReq_mshr_misses::.cpu1.data         1129                       # number of LoadLockedReq MSHR misses
system.cpu1.dcache.LoadLockedReq_mshr_misses::total         1129                       # number of LoadLockedReq MSHR misses
system.cpu1.dcache.LoadLockedReq_mshr_miss_latency::.cpu1.data     14808500                       # number of LoadLockedReq MSHR miss cycles
system.cpu1.dcache.LoadLockedReq_mshr_miss_latency::total     14808500                       # number of LoadLockedReq MSHR miss cycles
system.cpu1.dcache.LoadLockedReq_mshr_miss_rate::.cpu1.data     0.034952                       # mshr miss rate for LoadLockedReq accesses
system.cpu1.dcache.LoadLockedReq_mshr_miss_rate::total     0.034952                       # mshr miss rate for LoadLockedReq accesses
system.cpu1.dcache.LoadLockedReq_avg_mshr_miss_latency::.cpu1.data 13116.474756                       # average LoadLockedReq mshr miss latency
system.cpu1.dcache.LoadLockedReq_avg_mshr_miss_latency::total 13116.474756                       # average LoadLockedReq mshr miss latency
system.cpu1.dcache.StoreCondReq_hits::.cpu1.data        25042                       # number of StoreCondReq hits
system.cpu1.dcache.StoreCondReq_hits::total        25042                       # number of StoreCondReq hits
system.cpu1.dcache.StoreCondReq_misses::.cpu1.data         5814                       # number of StoreCondReq misses
system.cpu1.dcache.StoreCondReq_misses::total         5814                       # number of StoreCondReq misses
system.cpu1.dcache.StoreCondReq_miss_latency::.cpu1.data     41598500                       # number of StoreCondReq miss cycles
system.cpu1.dcache.StoreCondReq_miss_latency::total     41598500                       # number of StoreCondReq miss cycles
system.cpu1.dcache.StoreCondReq_accesses::.cpu1.data        30856                       # number of StoreCondReq accesses(hits+misses)
system.cpu1.dcache.StoreCondReq_accesses::total        30856                       # number of StoreCondReq accesses(hits+misses)
system.cpu1.dcache.StoreCondReq_miss_rate::.cpu1.data     0.188424                       # miss rate for StoreCondReq accesses
system.cpu1.dcache.StoreCondReq_miss_rate::total     0.188424                       # miss rate for StoreCondReq accesses
system.cpu1.dcache.StoreCondReq_avg_miss_latency::.cpu1.data  7154.884761                       # average StoreCondReq miss latency
system.cpu1.dcache.StoreCondReq_avg_miss_latency::total  7154.884761                       # average StoreCondReq miss latency
system.cpu1.dcache.StoreCondReq_mshr_misses::.cpu1.data         5651                       # number of StoreCondReq MSHR misses
system.cpu1.dcache.StoreCondReq_mshr_misses::total         5651                       # number of StoreCondReq MSHR misses
system.cpu1.dcache.StoreCondReq_mshr_miss_latency::.cpu1.data     36092500                       # number of StoreCondReq MSHR miss cycles
system.cpu1.dcache.StoreCondReq_mshr_miss_latency::total     36092500                       # number of StoreCondReq MSHR miss cycles
system.cpu1.dcache.StoreCondReq_mshr_miss_rate::.cpu1.data     0.183141                       # mshr miss rate for StoreCondReq accesses
system.cpu1.dcache.StoreCondReq_mshr_miss_rate::total     0.183141                       # mshr miss rate for StoreCondReq accesses
system.cpu1.dcache.StoreCondReq_avg_mshr_miss_latency::.cpu1.data  6386.922669                       # average StoreCondReq mshr miss latency
system.cpu1.dcache.StoreCondReq_avg_mshr_miss_latency::total  6386.922669                       # average StoreCondReq mshr miss latency
system.cpu1.dcache.StoreCondFailReq_miss_latency::.cpu1.data      1916500                       # number of StoreCondFailReq miss cycles
system.cpu1.dcache.StoreCondFailReq_miss_latency::total      1916500                       # number of StoreCondFailReq miss cycles
system.cpu1.dcache.StoreCondFailReq_avg_miss_latency::.cpu1.data          inf                       # average StoreCondFailReq miss latency
system.cpu1.dcache.StoreCondFailReq_avg_miss_latency::total          inf                       # average StoreCondFailReq miss latency
system.cpu1.dcache.StoreCondFailReq_mshr_miss_latency::.cpu1.data      1771500                       # number of StoreCondFailReq MSHR miss cycles
system.cpu1.dcache.StoreCondFailReq_mshr_miss_latency::total      1771500                       # number of StoreCondFailReq MSHR miss cycles
system.cpu1.dcache.StoreCondFailReq_avg_mshr_miss_latency::.cpu1.data          inf                       # average StoreCondFailReq mshr miss latency
system.cpu1.dcache.StoreCondFailReq_avg_mshr_miss_latency::total          inf                       # average StoreCondFailReq mshr miss latency
system.cpu1.dcache.SwapReq_hits::.cpu1.data         1070                       # number of SwapReq hits
system.cpu1.dcache.SwapReq_hits::total           1070                       # number of SwapReq hits
system.cpu1.dcache.SwapReq_misses::.cpu1.data         2986                       # number of SwapReq misses
system.cpu1.dcache.SwapReq_misses::total         2986                       # number of SwapReq misses
system.cpu1.dcache.SwapReq_miss_latency::.cpu1.data     63435999                       # number of SwapReq miss cycles
system.cpu1.dcache.SwapReq_miss_latency::total     63435999                       # number of SwapReq miss cycles
system.cpu1.dcache.SwapReq_accesses::.cpu1.data         4056                       # number of SwapReq accesses(hits+misses)
system.cpu1.dcache.SwapReq_accesses::total         4056                       # number of SwapReq accesses(hits+misses)
system.cpu1.dcache.SwapReq_miss_rate::.cpu1.data     0.736193                       # miss rate for SwapReq accesses
system.cpu1.dcache.SwapReq_miss_rate::total     0.736193                       # miss rate for SwapReq accesses
system.cpu1.dcache.SwapReq_avg_miss_latency::.cpu1.data 21244.473878                       # average SwapReq miss latency
system.cpu1.dcache.SwapReq_avg_miss_latency::total 21244.473878                       # average SwapReq miss latency
system.cpu1.dcache.SwapReq_mshr_hits::.cpu1.data            1                       # number of SwapReq MSHR hits
system.cpu1.dcache.SwapReq_mshr_hits::total            1                       # number of SwapReq MSHR hits
system.cpu1.dcache.SwapReq_mshr_misses::.cpu1.data         2985                       # number of SwapReq MSHR misses
system.cpu1.dcache.SwapReq_mshr_misses::total         2985                       # number of SwapReq MSHR misses
system.cpu1.dcache.SwapReq_mshr_miss_latency::.cpu1.data     60449999                       # number of SwapReq MSHR miss cycles
system.cpu1.dcache.SwapReq_mshr_miss_latency::total     60449999                       # number of SwapReq MSHR miss cycles
system.cpu1.dcache.SwapReq_mshr_miss_rate::.cpu1.data     0.735947                       # mshr miss rate for SwapReq accesses
system.cpu1.dcache.SwapReq_mshr_miss_rate::total     0.735947                       # mshr miss rate for SwapReq accesses
system.cpu1.dcache.SwapReq_avg_mshr_miss_latency::.cpu1.data 20251.255946                       # average SwapReq mshr miss latency
system.cpu1.dcache.SwapReq_avg_mshr_miss_latency::total 20251.255946                       # average SwapReq mshr miss latency
system.cpu1.dcache.tags.pwrStateResidencyTicks::UNDEFINED  42176494000                       # Cumulative time (in ticks) in various power states
system.cpu1.dcache.tags.tagsinuse           30.946744                       # Cycle average of tags in use
system.cpu1.dcache.tags.total_refs            9331971                       # Total number of references to valid blocks.
system.cpu1.dcache.tags.sampled_refs           642700                       # Sample count of references to valid blocks.
system.cpu1.dcache.tags.avg_refs            14.519949                       # Average number of references to valid blocks.
system.cpu1.dcache.tags.warmup_cycle                0                       # Cycle when the warmup percentage was hit.
system.cpu1.dcache.tags.occ_blocks::.cpu1.data    30.946744                       # Average occupied blocks per requestor
system.cpu1.dcache.tags.occ_percent::.cpu1.data     0.967086                       # Average percentage of cache occupancy
system.cpu1.dcache.tags.occ_percent::total     0.967086                       # Average percentage of cache occupancy
system.cpu1.dcache.tags.occ_task_id_blocks::1024           29                       # Occupied blocks per task id
system.cpu1.dcache.tags.age_task_id_blocks_1024::1           29                       # Occupied blocks per task id
system.cpu1.dcache.tags.occ_task_id_percent::1024     0.906250                       # Percentage of cache occupancy per task id
system.cpu1.dcache.tags.tag_accesses         23843296                       # Number of tag accesses
system.cpu1.dcache.tags.data_accesses        23843296                       # Number of data accesses
system.cpu_clk_domain.clock                       500                       # Clock period in ticks
system.tol2bus.pwrStateResidencyTicks::UNDEFINED  42176494000                       # Cumulative time (in ticks) in various power states
system.tol2bus.trans_dist::ReadResp           2632246                       # Transaction distribution
system.tol2bus.trans_dist::ReadRespWithInvalidate           17                       # Transaction distribution
system.tol2bus.trans_dist::WritebackDirty       823897                       # Transaction distribution
system.tol2bus.trans_dist::WritebackClean      2278222                       # Transaction distribution
system.tol2bus.trans_dist::CleanEvict         4521750                       # Transaction distribution
system.tol2bus.trans_dist::HardPFReq          1930510                       # Transaction distribution
system.tol2bus.trans_dist::UpgradeReq           14806                       # Transaction distribution
system.tol2bus.trans_dist::SCUpgradeReq         22243                       # Transaction distribution
system.tol2bus.trans_dist::UpgradeResp          37049                       # Transaction distribution
system.tol2bus.trans_dist::SCUpgradeFailReq          509                       # Transaction distribution
system.tol2bus.trans_dist::UpgradeFailResp          509                       # Transaction distribution
system.tol2bus.trans_dist::ReadExReq           144535                       # Transaction distribution
system.tol2bus.trans_dist::ReadExResp          144535                       # Transaction distribution
system.tol2bus.trans_dist::ReadCleanReq        178915                       # Transaction distribution
system.tol2bus.trans_dist::ReadSharedReq      2453348                       # Transaction distribution
system.tol2bus.trans_dist::InvalidateReq          669                       # Transaction distribution
system.tol2bus.trans_dist::InvalidateResp          669                       # Transaction distribution
system.tol2bus.pkt_count_system.cpu0.icache.mem_side::system.l2.cpu_side       327210                       # Packet count per connected master and slave (bytes)
system.tol2bus.pkt_count_system.cpu0.dcache.mem_side::system.l2.cpu_side      2100388                       # Packet count per connected master and slave (bytes)
system.tol2bus.pkt_count_system.cpu1.icache.mem_side::system.l2.cpu_side        69990                       # Packet count per connected master and slave (bytes)
system.tol2bus.pkt_count_system.cpu1.dcache.mem_side::system.l2.cpu_side      1911835                       # Packet count per connected master and slave (bytes)
system.tol2bus.pkt_count_system.cpu2.icache.mem_side::system.l2.cpu_side        70035                       # Packet count per connected master and slave (bytes)
system.tol2bus.pkt_count_system.cpu2.dcache.mem_side::system.l2.cpu_side      1884744                       # Packet count per connected master and slave (bytes)
system.tol2bus.pkt_count_system.cpu3.icache.mem_side::system.l2.cpu_side        69510                       # Packet count per connected master and slave (bytes)
system.tol2bus.pkt_count_system.cpu3.dcache.mem_side::system.l2.cpu_side      1840367                       # Packet count per connected master and slave (bytes)
system.tol2bus.pkt_count::total               8274079                       # Packet count per connected master and slave (bytes)
system.tol2bus.pkt_size_system.cpu0.icache.mem_side::system.l2.cpu_side     13960960                       # Cumulative packet size per connected master and slave (bytes)
system.tol2bus.pkt_size_system.cpu0.dcache.mem_side::system.l2.cpu_side     88501888                       # Cumulative packet size per connected master and slave (bytes)
system.tol2bus.pkt_size_system.cpu1.icache.mem_side::system.l2.cpu_side      2986240                       # Cumulative packet size per connected master and slave (bytes)
system.tol2bus.pkt_size_system.cpu1.dcache.mem_side::system.l2.cpu_side     80547136                       # Cumulative packet size per connected master and slave (bytes)
system.tol2bus.pkt_size_system.cpu2.icache.mem_side::system.l2.cpu_side      2988160                       # Cumulative packet size per connected master and slave (bytes)
system.tol2bus.pkt_size_system.cpu2.dcache.mem_side::system.l2.cpu_side     79401216                       # Cumulative packet size per connected master and slave (bytes)
system.tol2bus.pkt_size_system.cpu3.icache.mem_side::system.l2.cpu_side      2965760                       # Cumulative packet size per connected master and slave (bytes)
system.tol2bus.pkt_size_system.cpu3.dcache.mem_side::system.l2.cpu_side     77543296                       # Cumulative packet size per connected master and slave (bytes)
system.tol2bus.pkt_size::total              348894656                       # Cumulative packet size per connected master and slave (bytes)
system.tol2bus.snoops                         6910350                       # Total snoops (count)
system.tol2bus.snoopTraffic                  27388608                       # Total snoop traffic (bytes)
system.tol2bus.snoop_fanout::samples          9650395                       # Request fanout histogram
system.tol2bus.snoop_fanout::mean            0.378833                       # Request fanout histogram
system.tol2bus.snoop_fanout::stdev           0.693675                       # Request fanout histogram
system.tol2bus.snoop_fanout::underflows             0      0.00%      0.00% # Request fanout histogram
system.tol2bus.snoop_fanout::0                6818559     70.66%     70.66% # Request fanout histogram
system.tol2bus.snoop_fanout::1                2310456     23.94%     94.60% # Request fanout histogram
system.tol2bus.snoop_fanout::2                 278324      2.88%     97.48% # Request fanout histogram
system.tol2bus.snoop_fanout::3                 183436      1.90%     99.38% # Request fanout histogram
system.tol2bus.snoop_fanout::4                  59620      0.62%    100.00% # Request fanout histogram
system.tol2bus.snoop_fanout::5                      0      0.00%    100.00% # Request fanout histogram
system.tol2bus.snoop_fanout::6                      0      0.00%    100.00% # Request fanout histogram
system.tol2bus.snoop_fanout::7                      0      0.00%    100.00% # Request fanout histogram
system.tol2bus.snoop_fanout::8                      0      0.00%    100.00% # Request fanout histogram
system.tol2bus.snoop_fanout::overflows              0      0.00%    100.00% # Request fanout histogram
system.tol2bus.snoop_fanout::min_value              0                       # Request fanout histogram
system.tol2bus.snoop_fanout::max_value              4                       # Request fanout histogram
system.tol2bus.snoop_fanout::total            9650395                       # Request fanout histogram
system.tol2bus.reqLayer0.occupancy         5507170724                       # Layer occupancy (ticks)
system.tol2bus.reqLayer0.utilization             13.1                       # Layer utilization (%)
system.tol2bus.respLayer5.occupancy         959955687                       # Layer occupancy (ticks)
system.tol2bus.respLayer5.utilization             2.3                       # Layer utilization (%)
system.tol2bus.respLayer4.occupancy          38067256                       # Layer occupancy (ticks)
system.tol2bus.respLayer4.utilization             0.1                       # Layer utilization (%)
system.tol2bus.respLayer7.occupancy         937722808                       # Layer occupancy (ticks)
system.tol2bus.respLayer7.utilization             2.2                       # Layer utilization (%)
system.tol2bus.respLayer6.occupancy          37651630                       # Layer occupancy (ticks)
system.tol2bus.respLayer6.utilization             0.1                       # Layer utilization (%)
system.tol2bus.respLayer1.occupancy        1065281443                       # Layer occupancy (ticks)
system.tol2bus.respLayer1.utilization             2.5                       # Layer utilization (%)
system.tol2bus.respLayer0.occupancy         164296958                       # Layer occupancy (ticks)
system.tol2bus.respLayer0.utilization             0.4                       # Layer utilization (%)
system.tol2bus.respLayer3.occupancy         973656525                       # Layer occupancy (ticks)
system.tol2bus.respLayer3.utilization             2.3                       # Layer utilization (%)
system.tol2bus.respLayer2.occupancy          37993879                       # Layer occupancy (ticks)
system.tol2bus.respLayer2.utilization             0.1                       # Layer utilization (%)

---------- End Simulation Statistics   ----------
