
---------- Begin Simulation Statistics ----------
final_tick                               1046258890000                       # Number of ticks from beginning of simulation (restored from checkpoints and never reset)
host_inst_rate                                  58135                       # Simulator instruction rate (inst/s)
host_mem_usage                                 701644                       # Number of bytes of host memory used
host_op_rate                                    58326                       # Simulator op (including micro ops) rate (op/s)
host_seconds                                 19022.17                       # Real time elapsed on the host
host_tick_rate                               55002092                       # Simulator tick rate (ticks/s)
sim_freq                                 1000000000000                       # Frequency of simulated ticks
sim_insts                                  1105855844                       # Number of instructions simulated
sim_ops                                    1109481217                       # Number of ops (including micro ops) simulated
sim_seconds                                  1.046259                       # Number of seconds simulated
sim_ticks                                1046258890000                       # Number of ticks simulated
system.cpu0.branchPred.BTBCorrect                   0                       # Number of correct BTB predictions (this stat may not work properly.
system.cpu0.branchPred.BTBHitPct            87.686887                       # BTB Hit Percentage
system.cpu0.branchPred.BTBHits              143646486                       # Number of BTB hits
system.cpu0.branchPred.BTBLookups           163817523                       # Number of BTB lookups
system.cpu0.branchPred.RASInCorrect                 0                       # Number of incorrect RAS predictions.
system.cpu0.branchPred.condIncorrect         12805749                       # Number of conditional branches incorrect
system.cpu0.branchPred.condPredicted        224188086                       # Number of conditional branches predicted
system.cpu0.branchPred.indirectHits          18476650                       # Number of indirect target hits.
system.cpu0.branchPred.indirectLookups       18610039                       # Number of indirect predictor lookups.
system.cpu0.branchPred.indirectMisses          133389                       # Number of indirect misses.
system.cpu0.branchPred.lookups              285410523                       # Number of BP lookups
system.cpu0.branchPred.usedRAS                      0                       # Number of times the RAS was used to get a target.
system.cpu0.branchPredindirectMispredicted      1864251                       # Number of mispredicted indirect branches.
system.cpu0.commit.amos                       1811472                       # Number of atomic instructions committed
system.cpu0.commit.branchMispredicts          8500785                       # The number of times a branch was mispredicted
system.cpu0.commit.branches                 260687594                       # Number of branches committed
system.cpu0.commit.bw_lim_events             29765696                       # number cycles where commit BW limit reached
system.cpu0.commit.commitNonSpecStalls        5441398                       # The number of times commit has been forced to stall to communicate backwards
system.cpu0.commit.commitSquashedInsts       90811125                       # The number of squashed insts skipped by commit
system.cpu0.commit.committedInsts          1050765341                       # Number of instructions committed
system.cpu0.commit.committedOps            1052579338                       # Number of ops (including micro ops) committed
system.cpu0.commit.committed_per_cycle::samples   1931743941                       # Number of insts commited each cycle
system.cpu0.commit.committed_per_cycle::mean     0.544886                       # Number of insts commited each cycle
system.cpu0.commit.committed_per_cycle::stdev     1.306092                       # Number of insts commited each cycle
system.cpu0.commit.committed_per_cycle::underflows            0      0.00%      0.00% # Number of insts commited each cycle
system.cpu0.commit.committed_per_cycle::0   1415259190     73.26%     73.26% # Number of insts commited each cycle
system.cpu0.commit.committed_per_cycle::1    315118870     16.31%     89.58% # Number of insts commited each cycle
system.cpu0.commit.committed_per_cycle::2     71043940      3.68%     93.25% # Number of insts commited each cycle
system.cpu0.commit.committed_per_cycle::3     67500057      3.49%     96.75% # Number of insts commited each cycle
system.cpu0.commit.committed_per_cycle::4     19840121      1.03%     97.77% # Number of insts commited each cycle
system.cpu0.commit.committed_per_cycle::5      7332002      0.38%     98.15% # Number of insts commited each cycle
system.cpu0.commit.committed_per_cycle::6      2462100      0.13%     98.28% # Number of insts commited each cycle
system.cpu0.commit.committed_per_cycle::7      3421965      0.18%     98.46% # Number of insts commited each cycle
system.cpu0.commit.committed_per_cycle::8     29765696      1.54%    100.00% # Number of insts commited each cycle
system.cpu0.commit.committed_per_cycle::overflows            0      0.00%    100.00% # Number of insts commited each cycle
system.cpu0.commit.committed_per_cycle::min_value            0                       # Number of insts commited each cycle
system.cpu0.commit.committed_per_cycle::max_value            8                       # Number of insts commited each cycle
system.cpu0.commit.committed_per_cycle::total   1931743941                       # Number of insts commited each cycle
system.cpu0.commit.fp_insts                        46                       # Number of committed floating point instructions.
system.cpu0.commit.function_calls            20857866                       # Number of function calls committed.
system.cpu0.commit.int_insts               1015958234                       # Number of committed integer instructions.
system.cpu0.commit.loads                    326224348                       # Number of loads committed
system.cpu0.commit.membars                    3625354                       # Number of memory barriers committed
system.cpu0.commit.op_class_0::No_OpClass      3625360      0.34%      0.34% # Class of committed instruction
system.cpu0.commit.op_class_0::IntAlu       583916478     55.47%     55.82% # Class of committed instruction
system.cpu0.commit.op_class_0::IntMult        8030359      0.76%     56.58% # Class of committed instruction
system.cpu0.commit.op_class_0::IntDiv         1811037      0.17%     56.75% # Class of committed instruction
system.cpu0.commit.op_class_0::FloatAdd             0      0.00%     56.75% # Class of committed instruction
system.cpu0.commit.op_class_0::FloatCmp             4      0.00%     56.75% # Class of committed instruction
system.cpu0.commit.op_class_0::FloatCvt            12      0.00%     56.75% # Class of committed instruction
system.cpu0.commit.op_class_0::FloatMult            0      0.00%     56.75% # Class of committed instruction
system.cpu0.commit.op_class_0::FloatMultAcc            0      0.00%     56.75% # Class of committed instruction
system.cpu0.commit.op_class_0::FloatDiv             2      0.00%     56.75% # Class of committed instruction
system.cpu0.commit.op_class_0::FloatMisc            4      0.00%     56.75% # Class of committed instruction
system.cpu0.commit.op_class_0::FloatSqrt            0      0.00%     56.75% # Class of committed instruction
system.cpu0.commit.op_class_0::SimdAdd              0      0.00%     56.75% # Class of committed instruction
system.cpu0.commit.op_class_0::SimdAddAcc            0      0.00%     56.75% # Class of committed instruction
system.cpu0.commit.op_class_0::SimdAlu              0      0.00%     56.75% # Class of committed instruction
system.cpu0.commit.op_class_0::SimdCmp              0      0.00%     56.75% # Class of committed instruction
system.cpu0.commit.op_class_0::SimdCvt              0      0.00%     56.75% # Class of committed instruction
system.cpu0.commit.op_class_0::SimdMisc             0      0.00%     56.75% # Class of committed instruction
system.cpu0.commit.op_class_0::SimdMult             0      0.00%     56.75% # Class of committed instruction
system.cpu0.commit.op_class_0::SimdMultAcc            0      0.00%     56.75% # Class of committed instruction
system.cpu0.commit.op_class_0::SimdShift            0      0.00%     56.75% # Class of committed instruction
system.cpu0.commit.op_class_0::SimdShiftAcc            0      0.00%     56.75% # Class of committed instruction
system.cpu0.commit.op_class_0::SimdDiv              0      0.00%     56.75% # Class of committed instruction
system.cpu0.commit.op_class_0::SimdSqrt             0      0.00%     56.75% # Class of committed instruction
system.cpu0.commit.op_class_0::SimdFloatAdd            0      0.00%     56.75% # Class of committed instruction
system.cpu0.commit.op_class_0::SimdFloatAlu            0      0.00%     56.75% # Class of committed instruction
system.cpu0.commit.op_class_0::SimdFloatCmp            0      0.00%     56.75% # Class of committed instruction
system.cpu0.commit.op_class_0::SimdFloatCvt            0      0.00%     56.75% # Class of committed instruction
system.cpu0.commit.op_class_0::SimdFloatDiv            0      0.00%     56.75% # Class of committed instruction
system.cpu0.commit.op_class_0::SimdFloatMisc            0      0.00%     56.75% # Class of committed instruction
system.cpu0.commit.op_class_0::SimdFloatMult            0      0.00%     56.75% # Class of committed instruction
system.cpu0.commit.op_class_0::SimdFloatMultAcc            0      0.00%     56.75% # Class of committed instruction
system.cpu0.commit.op_class_0::SimdFloatSqrt            0      0.00%     56.75% # Class of committed instruction
system.cpu0.commit.op_class_0::SimdReduceAdd            0      0.00%     56.75% # Class of committed instruction
system.cpu0.commit.op_class_0::SimdReduceAlu            0      0.00%     56.75% # Class of committed instruction
system.cpu0.commit.op_class_0::SimdReduceCmp            0      0.00%     56.75% # Class of committed instruction
system.cpu0.commit.op_class_0::SimdFloatReduceAdd            0      0.00%     56.75% # Class of committed instruction
system.cpu0.commit.op_class_0::SimdFloatReduceCmp            0      0.00%     56.75% # Class of committed instruction
system.cpu0.commit.op_class_0::SimdAes              0      0.00%     56.75% # Class of committed instruction
system.cpu0.commit.op_class_0::SimdAesMix            0      0.00%     56.75% # Class of committed instruction
system.cpu0.commit.op_class_0::SimdSha1Hash            0      0.00%     56.75% # Class of committed instruction
system.cpu0.commit.op_class_0::SimdSha1Hash2            0      0.00%     56.75% # Class of committed instruction
system.cpu0.commit.op_class_0::SimdSha256Hash            0      0.00%     56.75% # Class of committed instruction
system.cpu0.commit.op_class_0::SimdSha256Hash2            0      0.00%     56.75% # Class of committed instruction
system.cpu0.commit.op_class_0::SimdShaSigma2            0      0.00%     56.75% # Class of committed instruction
system.cpu0.commit.op_class_0::SimdShaSigma3            0      0.00%     56.75% # Class of committed instruction
system.cpu0.commit.op_class_0::SimdPredAlu            0      0.00%     56.75% # Class of committed instruction
system.cpu0.commit.op_class_0::MemRead      328035812     31.16%     87.92% # Class of committed instruction
system.cpu0.commit.op_class_0::MemWrite     127160246     12.08%    100.00% # Class of committed instruction
system.cpu0.commit.op_class_0::FloatMemRead            8      0.00%    100.00% # Class of committed instruction
system.cpu0.commit.op_class_0::FloatMemWrite           16      0.00%    100.00% # Class of committed instruction
system.cpu0.commit.op_class_0::IprAccess            0      0.00%    100.00% # Class of committed instruction
system.cpu0.commit.op_class_0::InstPrefetch            0      0.00%    100.00% # Class of committed instruction
system.cpu0.commit.op_class_0::total       1052579338                       # Class of committed instruction
system.cpu0.commit.refs                     455196082                       # Number of memory references committed
system.cpu0.commit.swp_count                        0                       # Number of s/w prefetches committed
system.cpu0.commit.vec_insts                        0                       # Number of committed Vector instructions.
system.cpu0.committedInsts                 1050765341                       # Number of Instructions Simulated
system.cpu0.committedOps                   1052579338                       # Number of Ops (including micro ops) Simulated
system.cpu0.cpi                              1.986954                       # CPI: Cycles Per Instruction
system.cpu0.cpi_total                        1.986954                       # CPI: Total CPI of All Threads
system.cpu0.decode.BlockedCycles            331855716                       # Number of cycles decode is blocked
system.cpu0.decode.BranchMispred              4313227                       # Number of times decode detected a branch misprediction
system.cpu0.decode.BranchResolved           142102819                       # Number of times decode resolved a branch
system.cpu0.decode.DecodedInsts            1166935637                       # Number of instructions handled by decode
system.cpu0.decode.IdleCycles               802184345                       # Number of cycles decode is idle
system.cpu0.decode.RunCycles                800384520                       # Number of cycles decode is running
system.cpu0.decode.SquashCycles               8512860                       # Number of cycles decode is squashing
system.cpu0.decode.SquashedInsts              7893318                       # Number of squashed instructions handled by decode
system.cpu0.decode.UnblockCycles              5629672                       # Number of cycles decode is unblocking
system.cpu0.dtb.accesses                            0                       # DTB accesses
system.cpu0.dtb.hits                                0                       # DTB hits
system.cpu0.dtb.misses                              0                       # DTB misses
system.cpu0.dtb.read_accesses                       0                       # DTB read accesses
system.cpu0.dtb.read_hits                           0                       # DTB read hits
system.cpu0.dtb.read_misses                         0                       # DTB read misses
system.cpu0.dtb.write_accesses                      0                       # DTB write accesses
system.cpu0.dtb.write_hits                          0                       # DTB write hits
system.cpu0.dtb.write_misses                        0                       # DTB write misses
system.cpu0.fetch.Branches                  285410523                       # Number of branches that fetch encountered
system.cpu0.fetch.CacheLines                204581061                       # Number of cache lines fetched
system.cpu0.fetch.Cycles                   1139711582                       # Number of cycles fetch has run and was not squashing or blocked
system.cpu0.fetch.IcacheSquashes              5622212                       # Number of outstanding Icache misses that were squashed
system.cpu0.fetch.IcacheWaitRetryStallCycles          116                       # Number of stall cycles due to full MSHR
system.cpu0.fetch.Insts                    1191388740                       # Number of instructions fetch has processed
system.cpu0.fetch.MiscStallCycles                 115                       # Number of cycles fetch has spent waiting on interrupts, or bad addresses, or out of MSHRs
system.cpu0.fetch.SquashCycles               25635648                       # Number of cycles fetch has spent squashing
system.cpu0.fetch.branchRate                 0.136702                       # Number of branch fetches per cycle
system.cpu0.fetch.icacheStallCycles         796037476                       # Number of cycles fetch is stalled on an Icache miss
system.cpu0.fetch.predictedBranches         162123136                       # Number of branches that fetch has predicted taken
system.cpu0.fetch.rate                       0.570637                       # Number of inst fetches per cycle
system.cpu0.fetch.rateDist::samples        1948567113                       # Number of instructions fetched each cycle (Total)
system.cpu0.fetch.rateDist::mean             0.613958                       # Number of instructions fetched each cycle (Total)
system.cpu0.fetch.rateDist::stdev            0.904356                       # Number of instructions fetched each cycle (Total)
system.cpu0.fetch.rateDist::underflows              0      0.00%      0.00% # Number of instructions fetched each cycle (Total)
system.cpu0.fetch.rateDist::0              1106493378     56.78%     56.78% # Number of instructions fetched each cycle (Total)
system.cpu0.fetch.rateDist::1               618217024     31.73%     88.51% # Number of instructions fetched each cycle (Total)
system.cpu0.fetch.rateDist::2               134695528      6.91%     95.42% # Number of instructions fetched each cycle (Total)
system.cpu0.fetch.rateDist::3                69421159      3.56%     98.99% # Number of instructions fetched each cycle (Total)
system.cpu0.fetch.rateDist::4                 9140676      0.47%     99.46% # Number of instructions fetched each cycle (Total)
system.cpu0.fetch.rateDist::5                 5345770      0.27%     99.73% # Number of instructions fetched each cycle (Total)
system.cpu0.fetch.rateDist::6                 1518040      0.08%     99.81% # Number of instructions fetched each cycle (Total)
system.cpu0.fetch.rateDist::7                 1816658      0.09%     99.90% # Number of instructions fetched each cycle (Total)
system.cpu0.fetch.rateDist::8                 1918880      0.10%    100.00% # Number of instructions fetched each cycle (Total)
system.cpu0.fetch.rateDist::overflows               0      0.00%    100.00% # Number of instructions fetched each cycle (Total)
system.cpu0.fetch.rateDist::min_value               0                       # Number of instructions fetched each cycle (Total)
system.cpu0.fetch.rateDist::max_value               8                       # Number of instructions fetched each cycle (Total)
system.cpu0.fetch.rateDist::total          1948567113                       # Number of instructions fetched each cycle (Total)
system.cpu0.fp_regfile_reads                       40                       # number of floating regfile reads
system.cpu0.fp_regfile_writes                      39                       # number of floating regfile writes
system.cpu0.idleCycles                      139255451                       # Total number of cycles that the CPU has spent unscheduled due to idling
system.cpu0.iew.branchMispredicts             8608026                       # Number of branch mispredicts detected at execute
system.cpu0.iew.exec_branches               269630912                       # Number of branches executed
system.cpu0.iew.exec_nop                            0                       # number of nop insts executed
system.cpu0.iew.exec_rate                    0.529463                       # Inst execution rate
system.cpu0.iew.exec_refs                   483483415                       # number of memory reference insts executed
system.cpu0.iew.exec_stores                 133943958                       # Number of stores executed
system.cpu0.iew.exec_swp                            0                       # number of swp insts executed
system.cpu0.iew.iewBlockCycles              262591150                       # Number of cycles IEW is blocking
system.cpu0.iew.iewDispLoadInsts            359451860                       # Number of dispatched load instructions
system.cpu0.iew.iewDispNonSpecInsts           3589328                       # Number of dispatched non-speculative instructions
system.cpu0.iew.iewDispSquashedInsts          3437810                       # Number of squashed instructions skipped by dispatch
system.cpu0.iew.iewDispStoreInsts           140281384                       # Number of dispatched store instructions
system.cpu0.iew.iewDispatchedInsts         1143371102                       # Number of instructions dispatched to IQ
system.cpu0.iew.iewExecLoadInsts            349539457                       # Number of load instructions executed
system.cpu0.iew.iewExecSquashedInsts          8073973                       # Number of squashed instructions skipped in execute
system.cpu0.iew.iewExecutedInsts           1105425175                       # Number of executed instructions
system.cpu0.iew.iewIQFullEvents               2158237                       # Number of times the IQ has become full, causing a stall
system.cpu0.iew.iewIdleCycles                       0                       # Number of cycles IEW is idle
system.cpu0.iew.iewLSQFullEvents              6226140                       # Number of times the LSQ has become full, causing a stall
system.cpu0.iew.iewSquashCycles               8512860                       # Number of cycles IEW is squashing
system.cpu0.iew.iewUnblockCycles             10333955                       # Number of cycles IEW is unblocking
system.cpu0.iew.lsq.thread0.blockedLoads            0                       # Number of blocked loads due to partial load-store forwarding
system.cpu0.iew.lsq.thread0.cacheBlocked       136597                       # Number of times an access to memory failed due to the cache being blocked
system.cpu0.iew.lsq.thread0.forwLoads        16299784                       # Number of loads that had data forwarded from stores
system.cpu0.iew.lsq.thread0.ignoredResponses        46144                       # Number of memory responses ignored because the instruction is squashed
system.cpu0.iew.lsq.thread0.invAddrLoads            0                       # Number of loads ignored due to an invalid address
system.cpu0.iew.lsq.thread0.invAddrSwpfs            0                       # Number of software prefetches ignored due to an invalid address
system.cpu0.iew.lsq.thread0.memOrderViolation        13673                       # Number of memory ordering violations
system.cpu0.iew.lsq.thread0.rescheduledLoads      4307473                       # Number of loads that were rescheduled
system.cpu0.iew.lsq.thread0.squashedLoads     33227512                       # Number of loads squashed
system.cpu0.iew.lsq.thread0.squashedStores     11309650                       # Number of stores squashed
system.cpu0.iew.memOrderViolationEvents         13673                       # Number of memory order violations
system.cpu0.iew.predictedNotTakenIncorrect      1159763                       # Number of branches that were predicted not taken incorrectly
system.cpu0.iew.predictedTakenIncorrect       7448263                       # Number of branches that were predicted taken incorrectly
system.cpu0.iew.wb_consumers                457437300                       # num instructions consuming a value
system.cpu0.iew.wb_count                   1095352144                       # cumulative count of insts written-back
system.cpu0.iew.wb_fanout                    0.881846                       # average fanout of values written-back
system.cpu0.iew.wb_producers                403389157                       # num instructions producing a value
system.cpu0.iew.wb_rate                      0.524639                       # insts written-back per cycle
system.cpu0.iew.wb_sent                    1095446839                       # cumulative count of insts sent to commit
system.cpu0.int_regfile_reads              1351531491                       # number of integer regfile reads
system.cpu0.int_regfile_writes              699882894                       # number of integer regfile writes
system.cpu0.ipc                              0.503283                       # IPC: Instructions Per Cycle
system.cpu0.ipc_total                        0.503283                       # IPC: Total IPC of All Threads
system.cpu0.iq.FU_type_0::No_OpClass          3626897      0.33%      0.33% # Type of FU issued
system.cpu0.iq.FU_type_0::IntAlu            611928842     54.96%     55.28% # Type of FU issued
system.cpu0.iq.FU_type_0::IntMult             8035640      0.72%     56.00% # Type of FU issued
system.cpu0.iq.FU_type_0::IntDiv              1811555      0.16%     56.17% # Type of FU issued
system.cpu0.iq.FU_type_0::FloatAdd                  0      0.00%     56.17% # Type of FU issued
system.cpu0.iq.FU_type_0::FloatCmp                  4      0.00%     56.17% # Type of FU issued
system.cpu0.iq.FU_type_0::FloatCvt                 12      0.00%     56.17% # Type of FU issued
system.cpu0.iq.FU_type_0::FloatMult                 0      0.00%     56.17% # Type of FU issued
system.cpu0.iq.FU_type_0::FloatMultAcc              0      0.00%     56.17% # Type of FU issued
system.cpu0.iq.FU_type_0::FloatDiv                  2      0.00%     56.17% # Type of FU issued
system.cpu0.iq.FU_type_0::FloatMisc                 4      0.00%     56.17% # Type of FU issued
system.cpu0.iq.FU_type_0::FloatSqrt                 0      0.00%     56.17% # Type of FU issued
system.cpu0.iq.FU_type_0::SimdAdd                   0      0.00%     56.17% # Type of FU issued
system.cpu0.iq.FU_type_0::SimdAddAcc                0      0.00%     56.17% # Type of FU issued
system.cpu0.iq.FU_type_0::SimdAlu                   0      0.00%     56.17% # Type of FU issued
system.cpu0.iq.FU_type_0::SimdCmp                   0      0.00%     56.17% # Type of FU issued
system.cpu0.iq.FU_type_0::SimdCvt                   0      0.00%     56.17% # Type of FU issued
system.cpu0.iq.FU_type_0::SimdMisc                  0      0.00%     56.17% # Type of FU issued
system.cpu0.iq.FU_type_0::SimdMult                  0      0.00%     56.17% # Type of FU issued
system.cpu0.iq.FU_type_0::SimdMultAcc               0      0.00%     56.17% # Type of FU issued
system.cpu0.iq.FU_type_0::SimdShift                 0      0.00%     56.17% # Type of FU issued
system.cpu0.iq.FU_type_0::SimdShiftAcc              0      0.00%     56.17% # Type of FU issued
system.cpu0.iq.FU_type_0::SimdDiv                   0      0.00%     56.17% # Type of FU issued
system.cpu0.iq.FU_type_0::SimdSqrt                  0      0.00%     56.17% # Type of FU issued
system.cpu0.iq.FU_type_0::SimdFloatAdd              0      0.00%     56.17% # Type of FU issued
system.cpu0.iq.FU_type_0::SimdFloatAlu              0      0.00%     56.17% # Type of FU issued
system.cpu0.iq.FU_type_0::SimdFloatCmp              0      0.00%     56.17% # Type of FU issued
system.cpu0.iq.FU_type_0::SimdFloatCvt              0      0.00%     56.17% # Type of FU issued
system.cpu0.iq.FU_type_0::SimdFloatDiv              0      0.00%     56.17% # Type of FU issued
system.cpu0.iq.FU_type_0::SimdFloatMisc             0      0.00%     56.17% # Type of FU issued
system.cpu0.iq.FU_type_0::SimdFloatMult             0      0.00%     56.17% # Type of FU issued
system.cpu0.iq.FU_type_0::SimdFloatMultAcc            0      0.00%     56.17% # Type of FU issued
system.cpu0.iq.FU_type_0::SimdFloatSqrt             0      0.00%     56.17% # Type of FU issued
system.cpu0.iq.FU_type_0::SimdReduceAdd             0      0.00%     56.17% # Type of FU issued
system.cpu0.iq.FU_type_0::SimdReduceAlu             0      0.00%     56.17% # Type of FU issued
system.cpu0.iq.FU_type_0::SimdReduceCmp             0      0.00%     56.17% # Type of FU issued
system.cpu0.iq.FU_type_0::SimdFloatReduceAdd            0      0.00%     56.17% # Type of FU issued
system.cpu0.iq.FU_type_0::SimdFloatReduceCmp            0      0.00%     56.17% # Type of FU issued
system.cpu0.iq.FU_type_0::SimdAes                   0      0.00%     56.17% # Type of FU issued
system.cpu0.iq.FU_type_0::SimdAesMix                0      0.00%     56.17% # Type of FU issued
system.cpu0.iq.FU_type_0::SimdSha1Hash              0      0.00%     56.17% # Type of FU issued
system.cpu0.iq.FU_type_0::SimdSha1Hash2             0      0.00%     56.17% # Type of FU issued
system.cpu0.iq.FU_type_0::SimdSha256Hash            0      0.00%     56.17% # Type of FU issued
system.cpu0.iq.FU_type_0::SimdSha256Hash2            0      0.00%     56.17% # Type of FU issued
system.cpu0.iq.FU_type_0::SimdShaSigma2             0      0.00%     56.17% # Type of FU issued
system.cpu0.iq.FU_type_0::SimdShaSigma3             0      0.00%     56.17% # Type of FU issued
system.cpu0.iq.FU_type_0::SimdPredAlu               0      0.00%     56.17% # Type of FU issued
system.cpu0.iq.FU_type_0::MemRead           354316388     31.82%     87.99% # Type of FU issued
system.cpu0.iq.FU_type_0::MemWrite          133779747     12.01%    100.00% # Type of FU issued
system.cpu0.iq.FU_type_0::FloatMemRead             42      0.00%    100.00% # Type of FU issued
system.cpu0.iq.FU_type_0::FloatMemWrite            16      0.00%    100.00% # Type of FU issued
system.cpu0.iq.FU_type_0::IprAccess                 0      0.00%    100.00% # Type of FU issued
system.cpu0.iq.FU_type_0::InstPrefetch              0      0.00%    100.00% # Type of FU issued
system.cpu0.iq.FU_type_0::total            1113499149                       # Type of FU issued
system.cpu0.iq.fp_alu_accesses                     82                       # Number of floating point alu accesses
system.cpu0.iq.fp_inst_queue_reads                162                       # Number of floating instruction queue reads
system.cpu0.iq.fp_inst_queue_wakeup_accesses           63                       # Number of floating instruction queue wakeup accesses
system.cpu0.iq.fp_inst_queue_writes               220                       # Number of floating instruction queue writes
system.cpu0.iq.fu_busy_cnt                    2348672                       # FU busy when requested
system.cpu0.iq.fu_busy_rate                  0.002109                       # FU busy rate (busy events/executed inst)
system.cpu0.iq.fu_full::No_OpClass                  0      0.00%      0.00% # attempts to use FU when none available
system.cpu0.iq.fu_full::IntAlu                 459677     19.57%     19.57% # attempts to use FU when none available
system.cpu0.iq.fu_full::IntMult                     0      0.00%     19.57% # attempts to use FU when none available
system.cpu0.iq.fu_full::IntDiv                      0      0.00%     19.57% # attempts to use FU when none available
system.cpu0.iq.fu_full::FloatAdd                    0      0.00%     19.57% # attempts to use FU when none available
system.cpu0.iq.fu_full::FloatCmp                    0      0.00%     19.57% # attempts to use FU when none available
system.cpu0.iq.fu_full::FloatCvt                    0      0.00%     19.57% # attempts to use FU when none available
system.cpu0.iq.fu_full::FloatMult                   0      0.00%     19.57% # attempts to use FU when none available
system.cpu0.iq.fu_full::FloatMultAcc                0      0.00%     19.57% # attempts to use FU when none available
system.cpu0.iq.fu_full::FloatDiv                    0      0.00%     19.57% # attempts to use FU when none available
system.cpu0.iq.fu_full::FloatMisc                   0      0.00%     19.57% # attempts to use FU when none available
system.cpu0.iq.fu_full::FloatSqrt                   0      0.00%     19.57% # attempts to use FU when none available
system.cpu0.iq.fu_full::SimdAdd                     0      0.00%     19.57% # attempts to use FU when none available
system.cpu0.iq.fu_full::SimdAddAcc                  0      0.00%     19.57% # attempts to use FU when none available
system.cpu0.iq.fu_full::SimdAlu                     0      0.00%     19.57% # attempts to use FU when none available
system.cpu0.iq.fu_full::SimdCmp                     0      0.00%     19.57% # attempts to use FU when none available
system.cpu0.iq.fu_full::SimdCvt                     0      0.00%     19.57% # attempts to use FU when none available
system.cpu0.iq.fu_full::SimdMisc                    0      0.00%     19.57% # attempts to use FU when none available
system.cpu0.iq.fu_full::SimdMult                    0      0.00%     19.57% # attempts to use FU when none available
system.cpu0.iq.fu_full::SimdMultAcc                 0      0.00%     19.57% # attempts to use FU when none available
system.cpu0.iq.fu_full::SimdShift                   0      0.00%     19.57% # attempts to use FU when none available
system.cpu0.iq.fu_full::SimdShiftAcc                0      0.00%     19.57% # attempts to use FU when none available
system.cpu0.iq.fu_full::SimdDiv                     0      0.00%     19.57% # attempts to use FU when none available
system.cpu0.iq.fu_full::SimdSqrt                    0      0.00%     19.57% # attempts to use FU when none available
system.cpu0.iq.fu_full::SimdFloatAdd                0      0.00%     19.57% # attempts to use FU when none available
system.cpu0.iq.fu_full::SimdFloatAlu                0      0.00%     19.57% # attempts to use FU when none available
system.cpu0.iq.fu_full::SimdFloatCmp                0      0.00%     19.57% # attempts to use FU when none available
system.cpu0.iq.fu_full::SimdFloatCvt                0      0.00%     19.57% # attempts to use FU when none available
system.cpu0.iq.fu_full::SimdFloatDiv                0      0.00%     19.57% # attempts to use FU when none available
system.cpu0.iq.fu_full::SimdFloatMisc               0      0.00%     19.57% # attempts to use FU when none available
system.cpu0.iq.fu_full::SimdFloatMult               0      0.00%     19.57% # attempts to use FU when none available
system.cpu0.iq.fu_full::SimdFloatMultAcc            0      0.00%     19.57% # attempts to use FU when none available
system.cpu0.iq.fu_full::SimdFloatSqrt               0      0.00%     19.57% # attempts to use FU when none available
system.cpu0.iq.fu_full::SimdReduceAdd               0      0.00%     19.57% # attempts to use FU when none available
system.cpu0.iq.fu_full::SimdReduceAlu               0      0.00%     19.57% # attempts to use FU when none available
system.cpu0.iq.fu_full::SimdReduceCmp               0      0.00%     19.57% # attempts to use FU when none available
system.cpu0.iq.fu_full::SimdFloatReduceAdd            0      0.00%     19.57% # attempts to use FU when none available
system.cpu0.iq.fu_full::SimdFloatReduceCmp            0      0.00%     19.57% # attempts to use FU when none available
system.cpu0.iq.fu_full::SimdAes                     0      0.00%     19.57% # attempts to use FU when none available
system.cpu0.iq.fu_full::SimdAesMix                  0      0.00%     19.57% # attempts to use FU when none available
system.cpu0.iq.fu_full::SimdSha1Hash                0      0.00%     19.57% # attempts to use FU when none available
system.cpu0.iq.fu_full::SimdSha1Hash2               0      0.00%     19.57% # attempts to use FU when none available
system.cpu0.iq.fu_full::SimdSha256Hash              0      0.00%     19.57% # attempts to use FU when none available
system.cpu0.iq.fu_full::SimdSha256Hash2             0      0.00%     19.57% # attempts to use FU when none available
system.cpu0.iq.fu_full::SimdShaSigma2               0      0.00%     19.57% # attempts to use FU when none available
system.cpu0.iq.fu_full::SimdShaSigma3               0      0.00%     19.57% # attempts to use FU when none available
system.cpu0.iq.fu_full::SimdPredAlu                 0      0.00%     19.57% # attempts to use FU when none available
system.cpu0.iq.fu_full::MemRead               1677335     71.42%     90.99% # attempts to use FU when none available
system.cpu0.iq.fu_full::MemWrite               211658      9.01%    100.00% # attempts to use FU when none available
system.cpu0.iq.fu_full::FloatMemRead                0      0.00%    100.00% # attempts to use FU when none available
system.cpu0.iq.fu_full::FloatMemWrite               2      0.00%    100.00% # attempts to use FU when none available
system.cpu0.iq.fu_full::IprAccess                   0      0.00%    100.00% # attempts to use FU when none available
system.cpu0.iq.fu_full::InstPrefetch                0      0.00%    100.00% # attempts to use FU when none available
system.cpu0.iq.int_alu_accesses            1112220842                       # Number of integer alu accesses
system.cpu0.iq.int_inst_queue_reads        4178055729                       # Number of integer instruction queue reads
system.cpu0.iq.int_inst_queue_wakeup_accesses   1095352081                       # Number of integer instruction queue wakeup accesses
system.cpu0.iq.int_inst_queue_writes       1234175393                       # Number of integer instruction queue writes
system.cpu0.iq.iqInstsAdded                1132610009                       # Number of instructions added to the IQ (excludes non-spec)
system.cpu0.iq.iqInstsIssued               1113499149                       # Number of instructions issued
system.cpu0.iq.iqNonSpecInstsAdded           10761093                       # Number of non-speculative instructions added to the IQ
system.cpu0.iq.iqSquashedInstsExamined       90791760                       # Number of squashed instructions iterated over during squash; mainly for profiling
system.cpu0.iq.iqSquashedInstsIssued           141809                       # Number of squashed instructions issued
system.cpu0.iq.iqSquashedNonSpecRemoved       5319695                       # Number of squashed non-spec instructions that were removed
system.cpu0.iq.iqSquashedOperandsExamined     50282775                       # Number of squashed operands that are examined and possibly removed from graph
system.cpu0.iq.issued_per_cycle::samples   1948567113                       # Number of insts issued each cycle
system.cpu0.iq.issued_per_cycle::mean        0.571445                       # Number of insts issued each cycle
system.cpu0.iq.issued_per_cycle::stdev       0.801961                       # Number of insts issued each cycle
system.cpu0.iq.issued_per_cycle::underflows            0      0.00%      0.00% # Number of insts issued each cycle
system.cpu0.iq.issued_per_cycle::0         1139368166     58.47%     58.47% # Number of insts issued each cycle
system.cpu0.iq.issued_per_cycle::1          564503993     28.97%     87.44% # Number of insts issued each cycle
system.cpu0.iq.issued_per_cycle::2          201011699     10.32%     97.76% # Number of insts issued each cycle
system.cpu0.iq.issued_per_cycle::3           33355541      1.71%     99.47% # Number of insts issued each cycle
system.cpu0.iq.issued_per_cycle::4            6592108      0.34%     99.81% # Number of insts issued each cycle
system.cpu0.iq.issued_per_cycle::5            2435810      0.13%     99.93% # Number of insts issued each cycle
system.cpu0.iq.issued_per_cycle::6             905524      0.05%     99.98% # Number of insts issued each cycle
system.cpu0.iq.issued_per_cycle::7             229667      0.01%     99.99% # Number of insts issued each cycle
system.cpu0.iq.issued_per_cycle::8             164605      0.01%    100.00% # Number of insts issued each cycle
system.cpu0.iq.issued_per_cycle::overflows            0      0.00%    100.00% # Number of insts issued each cycle
system.cpu0.iq.issued_per_cycle::min_value            0                       # Number of insts issued each cycle
system.cpu0.iq.issued_per_cycle::max_value            8                       # Number of insts issued each cycle
system.cpu0.iq.issued_per_cycle::total     1948567113                       # Number of insts issued each cycle
system.cpu0.iq.rate                          0.533330                       # Inst issue rate
system.cpu0.iq.vec_alu_accesses                     0                       # Number of vector alu accesses
system.cpu0.iq.vec_inst_queue_reads                 0                       # Number of vector instruction queue reads
system.cpu0.iq.vec_inst_queue_wakeup_accesses            0                       # Number of vector instruction queue wakeup accesses
system.cpu0.iq.vec_inst_queue_writes                0                       # Number of vector instruction queue writes
system.cpu0.itb.accesses                            0                       # DTB accesses
system.cpu0.itb.hits                                0                       # DTB hits
system.cpu0.itb.misses                              0                       # DTB misses
system.cpu0.itb.read_accesses                       0                       # DTB read accesses
system.cpu0.itb.read_hits                           0                       # DTB read hits
system.cpu0.itb.read_misses                         0                       # DTB read misses
system.cpu0.itb.write_accesses                      0                       # DTB write accesses
system.cpu0.itb.write_hits                          0                       # DTB write hits
system.cpu0.itb.write_misses                        0                       # DTB write misses
system.cpu0.memDep0.conflictingLoads         26825022                       # Number of conflicting loads.
system.cpu0.memDep0.conflictingStores         4809803                       # Number of conflicting stores.
system.cpu0.memDep0.insertedLoads           359451860                       # Number of loads inserted to the mem dependence unit.
system.cpu0.memDep0.insertedStores          140281384                       # Number of stores inserted to the mem dependence unit.
system.cpu0.misc_regfile_reads                   1504                       # number of misc regfile reads
system.cpu0.misc_regfile_writes                    22                       # number of misc regfile writes
system.cpu0.numCycles                      2087822564                       # number of cpu cycles simulated
system.cpu0.numWorkItemsCompleted                   0                       # number of work items this cpu completed
system.cpu0.numWorkItemsStarted                     0                       # number of work items this cpu started
system.cpu0.quiesceCycles                     4696228                       # Total number of cycles that CPU has spent quiesced or waiting for an interrupt
system.cpu0.rename.BlockCycles              284882299                       # Number of cycles rename is blocking
system.cpu0.rename.CommittedMaps            670621388                       # Number of HB maps that are committed
system.cpu0.rename.IQFullEvents              10799371                       # Number of times rename has blocked due to IQ full
system.cpu0.rename.IdleCycles               813346314                       # Number of cycles rename is idle
system.cpu0.rename.LQFullEvents              17933518                       # Number of times rename has blocked due to LQ full
system.cpu0.rename.ROBFullEvents                46533                       # Number of times rename has blocked due to ROB full
system.cpu0.rename.RenameLookups           1412431849                       # Number of register rename lookups that rename has made
system.cpu0.rename.RenamedInsts            1155316415                       # Number of instructions processed by rename
system.cpu0.rename.RenamedOperands          740977622                       # Number of destination operands rename has renamed
system.cpu0.rename.RunCycles                793228971                       # Number of cycles rename is running
system.cpu0.rename.SQFullEvents              19022503                       # Number of times rename has blocked due to SQ full
system.cpu0.rename.SquashCycles               8512860                       # Number of cycles rename is squashing
system.cpu0.rename.UnblockCycles             48457828                       # Number of cycles rename is unblocking
system.cpu0.rename.UndoneMaps                70356226                       # Number of HB maps that are undone due to squashing
system.cpu0.rename.fp_rename_lookups               40                       # Number of floating rename lookups
system.cpu0.rename.int_rename_lookups      1412431809                       # Number of integer rename lookups
system.cpu0.rename.serializeStallCycles        138841                       # count of cycles rename stalled for serializing inst
system.cpu0.rename.serializingInsts              4763                       # count of serializing insts renamed
system.cpu0.rename.skidInsts                 22412668                       # count of insts added to the skid buffer
system.cpu0.rename.tempSerializingInsts          4761                       # count of temporary serializing insts renamed
system.cpu0.rob.rob_reads                  3045349624                       # The number of ROB reads
system.cpu0.rob.rob_writes                 2303622098                       # The number of ROB writes
system.cpu0.timesIdled                       25755035                       # Number of times that the entire CPU went into an idle state and unscheduled itself
system.cpu0.workload.numSyscalls                 1471                       # Number of system calls
system.cpu1.branchPred.BTBCorrect                   0                       # Number of correct BTB predictions (this stat may not work properly.
system.cpu1.branchPred.BTBHitPct            95.362545                       # BTB Hit Percentage
system.cpu1.branchPred.BTBHits                9880621                       # Number of BTB hits
system.cpu1.branchPred.BTBLookups            10361113                       # Number of BTB lookups
system.cpu1.branchPred.RASInCorrect                 0                       # Number of incorrect RAS predictions.
system.cpu1.branchPred.condIncorrect          1893797                       # Number of conditional branches incorrect
system.cpu1.branchPred.condPredicted         19311562                       # Number of conditional branches predicted
system.cpu1.branchPred.indirectHits            308522                       # Number of indirect target hits.
system.cpu1.branchPred.indirectLookups         432483                       # Number of indirect predictor lookups.
system.cpu1.branchPred.indirectMisses          123961                       # Number of indirect misses.
system.cpu1.branchPred.lookups               20951290                       # Number of BP lookups
system.cpu1.branchPred.usedRAS                      0                       # Number of times the RAS was used to get a target.
system.cpu1.branchPredindirectMispredicted         4743                       # Number of mispredicted indirect branches.
system.cpu1.commit.amos                       1811199                       # Number of atomic instructions committed
system.cpu1.commit.branchMispredicts          1110535                       # The number of times a branch was mispredicted
system.cpu1.commit.branches                  12205065                       # Number of branches committed
system.cpu1.commit.bw_lim_events              1295187                       # number cycles where commit BW limit reached
system.cpu1.commit.commitNonSpecStalls        5434269                       # The number of times commit has been forced to stall to communicate backwards
system.cpu1.commit.commitSquashedInsts       22552233                       # The number of squashed insts skipped by commit
system.cpu1.commit.committedInsts            55090503                       # Number of instructions committed
system.cpu1.commit.committedOps              56901879                       # Number of ops (including micro ops) committed
system.cpu1.commit.committed_per_cycle::samples    333533782                       # Number of insts commited each cycle
system.cpu1.commit.committed_per_cycle::mean     0.170603                       # Number of insts commited each cycle
system.cpu1.commit.committed_per_cycle::stdev     0.818590                       # Number of insts commited each cycle
system.cpu1.commit.committed_per_cycle::underflows            0      0.00%      0.00% # Number of insts commited each cycle
system.cpu1.commit.committed_per_cycle::0    310260214     93.02%     93.02% # Number of insts commited each cycle
system.cpu1.commit.committed_per_cycle::1     11444369      3.43%     96.45% # Number of insts commited each cycle
system.cpu1.commit.committed_per_cycle::2      3702899      1.11%     97.56% # Number of insts commited each cycle
system.cpu1.commit.committed_per_cycle::3      3694823      1.11%     98.67% # Number of insts commited each cycle
system.cpu1.commit.committed_per_cycle::4      1008864      0.30%     98.97% # Number of insts commited each cycle
system.cpu1.commit.committed_per_cycle::5       299976      0.09%     99.06% # Number of insts commited each cycle
system.cpu1.commit.committed_per_cycle::6      1721739      0.52%     99.58% # Number of insts commited each cycle
system.cpu1.commit.committed_per_cycle::7       105711      0.03%     99.61% # Number of insts commited each cycle
system.cpu1.commit.committed_per_cycle::8      1295187      0.39%    100.00% # Number of insts commited each cycle
system.cpu1.commit.committed_per_cycle::overflows            0      0.00%    100.00% # Number of insts commited each cycle
system.cpu1.commit.committed_per_cycle::min_value            0                       # Number of insts commited each cycle
system.cpu1.commit.committed_per_cycle::max_value            8                       # Number of insts commited each cycle
system.cpu1.commit.committed_per_cycle::total    333533782                       # Number of insts commited each cycle
system.cpu1.commit.fp_insts                        12                       # Number of committed floating point instructions.
system.cpu1.commit.function_calls              502888                       # Number of function calls committed.
system.cpu1.commit.int_insts                 52987489                       # Number of committed integer instructions.
system.cpu1.commit.loads                     16128055                       # Number of loads committed
system.cpu1.commit.membars                    3622521                       # Number of memory barriers committed
system.cpu1.commit.op_class_0::No_OpClass      3622521      6.37%      6.37% # Class of committed instruction
system.cpu1.commit.op_class_0::IntAlu        32020532     56.27%     62.64% # Class of committed instruction
system.cpu1.commit.op_class_0::IntMult             43      0.00%     62.64% # Class of committed instruction
system.cpu1.commit.op_class_0::IntDiv              86      0.00%     62.64% # Class of committed instruction
system.cpu1.commit.op_class_0::FloatAdd             0      0.00%     62.64% # Class of committed instruction
system.cpu1.commit.op_class_0::FloatCmp             0      0.00%     62.64% # Class of committed instruction
system.cpu1.commit.op_class_0::FloatCvt             0      0.00%     62.64% # Class of committed instruction
system.cpu1.commit.op_class_0::FloatMult            0      0.00%     62.64% # Class of committed instruction
system.cpu1.commit.op_class_0::FloatMultAcc            0      0.00%     62.64% # Class of committed instruction
system.cpu1.commit.op_class_0::FloatDiv             0      0.00%     62.64% # Class of committed instruction
system.cpu1.commit.op_class_0::FloatMisc            0      0.00%     62.64% # Class of committed instruction
system.cpu1.commit.op_class_0::FloatSqrt            0      0.00%     62.64% # Class of committed instruction
system.cpu1.commit.op_class_0::SimdAdd              0      0.00%     62.64% # Class of committed instruction
system.cpu1.commit.op_class_0::SimdAddAcc            0      0.00%     62.64% # Class of committed instruction
system.cpu1.commit.op_class_0::SimdAlu              0      0.00%     62.64% # Class of committed instruction
system.cpu1.commit.op_class_0::SimdCmp              0      0.00%     62.64% # Class of committed instruction
system.cpu1.commit.op_class_0::SimdCvt              0      0.00%     62.64% # Class of committed instruction
system.cpu1.commit.op_class_0::SimdMisc             0      0.00%     62.64% # Class of committed instruction
system.cpu1.commit.op_class_0::SimdMult             0      0.00%     62.64% # Class of committed instruction
system.cpu1.commit.op_class_0::SimdMultAcc            0      0.00%     62.64% # Class of committed instruction
system.cpu1.commit.op_class_0::SimdShift            0      0.00%     62.64% # Class of committed instruction
system.cpu1.commit.op_class_0::SimdShiftAcc            0      0.00%     62.64% # Class of committed instruction
system.cpu1.commit.op_class_0::SimdDiv              0      0.00%     62.64% # Class of committed instruction
system.cpu1.commit.op_class_0::SimdSqrt             0      0.00%     62.64% # Class of committed instruction
system.cpu1.commit.op_class_0::SimdFloatAdd            0      0.00%     62.64% # Class of committed instruction
system.cpu1.commit.op_class_0::SimdFloatAlu            0      0.00%     62.64% # Class of committed instruction
system.cpu1.commit.op_class_0::SimdFloatCmp            0      0.00%     62.64% # Class of committed instruction
system.cpu1.commit.op_class_0::SimdFloatCvt            0      0.00%     62.64% # Class of committed instruction
system.cpu1.commit.op_class_0::SimdFloatDiv            0      0.00%     62.64% # Class of committed instruction
system.cpu1.commit.op_class_0::SimdFloatMisc            0      0.00%     62.64% # Class of committed instruction
system.cpu1.commit.op_class_0::SimdFloatMult            0      0.00%     62.64% # Class of committed instruction
system.cpu1.commit.op_class_0::SimdFloatMultAcc            0      0.00%     62.64% # Class of committed instruction
system.cpu1.commit.op_class_0::SimdFloatSqrt            0      0.00%     62.64% # Class of committed instruction
system.cpu1.commit.op_class_0::SimdReduceAdd            0      0.00%     62.64% # Class of committed instruction
system.cpu1.commit.op_class_0::SimdReduceAlu            0      0.00%     62.64% # Class of committed instruction
system.cpu1.commit.op_class_0::SimdReduceCmp            0      0.00%     62.64% # Class of committed instruction
system.cpu1.commit.op_class_0::SimdFloatReduceAdd            0      0.00%     62.64% # Class of committed instruction
system.cpu1.commit.op_class_0::SimdFloatReduceCmp            0      0.00%     62.64% # Class of committed instruction
system.cpu1.commit.op_class_0::SimdAes              0      0.00%     62.64% # Class of committed instruction
system.cpu1.commit.op_class_0::SimdAesMix            0      0.00%     62.64% # Class of committed instruction
system.cpu1.commit.op_class_0::SimdSha1Hash            0      0.00%     62.64% # Class of committed instruction
system.cpu1.commit.op_class_0::SimdSha1Hash2            0      0.00%     62.64% # Class of committed instruction
system.cpu1.commit.op_class_0::SimdSha256Hash            0      0.00%     62.64% # Class of committed instruction
system.cpu1.commit.op_class_0::SimdSha256Hash2            0      0.00%     62.64% # Class of committed instruction
system.cpu1.commit.op_class_0::SimdShaSigma2            0      0.00%     62.64% # Class of committed instruction
system.cpu1.commit.op_class_0::SimdShaSigma3            0      0.00%     62.64% # Class of committed instruction
system.cpu1.commit.op_class_0::SimdPredAlu            0      0.00%     62.64% # Class of committed instruction
system.cpu1.commit.op_class_0::MemRead       17939254     31.53%     94.17% # Class of committed instruction
system.cpu1.commit.op_class_0::MemWrite       3319431      5.83%    100.00% # Class of committed instruction
system.cpu1.commit.op_class_0::FloatMemRead            0      0.00%    100.00% # Class of committed instruction
system.cpu1.commit.op_class_0::FloatMemWrite           12      0.00%    100.00% # Class of committed instruction
system.cpu1.commit.op_class_0::IprAccess            0      0.00%    100.00% # Class of committed instruction
system.cpu1.commit.op_class_0::InstPrefetch            0      0.00%    100.00% # Class of committed instruction
system.cpu1.commit.op_class_0::total         56901879                       # Class of committed instruction
system.cpu1.commit.refs                      21258697                       # Number of memory references committed
system.cpu1.commit.swp_count                        0                       # Number of s/w prefetches committed
system.cpu1.commit.vec_insts                        0                       # Number of committed Vector instructions.
system.cpu1.committedInsts                   55090503                       # Number of Instructions Simulated
system.cpu1.committedOps                     56901879                       # Number of Ops (including micro ops) Simulated
system.cpu1.cpi                              6.123431                       # CPI: Cycles Per Instruction
system.cpu1.cpi_total                        6.123431                       # CPI: Total CPI of All Threads
system.cpu1.decode.BlockedCycles            291174143                       # Number of cycles decode is blocked
system.cpu1.decode.BranchMispred               789872                       # Number of times decode detected a branch misprediction
system.cpu1.decode.BranchResolved             8869355                       # Number of times decode resolved a branch
system.cpu1.decode.DecodedInsts              87471446                       # Number of instructions handled by decode
system.cpu1.decode.IdleCycles                12101227                       # Number of cycles decode is idle
system.cpu1.decode.RunCycles                 28069497                       # Number of cycles decode is running
system.cpu1.decode.SquashCycles               1111104                       # Number of cycles decode is squashing
system.cpu1.decode.SquashedInsts              1153296                       # Number of squashed instructions handled by decode
system.cpu1.decode.UnblockCycles              4628077                       # Number of cycles decode is unblocking
system.cpu1.dtb.accesses                            0                       # DTB accesses
system.cpu1.dtb.hits                                0                       # DTB hits
system.cpu1.dtb.misses                              0                       # DTB misses
system.cpu1.dtb.read_accesses                       0                       # DTB read accesses
system.cpu1.dtb.read_hits                           0                       # DTB read hits
system.cpu1.dtb.read_misses                         0                       # DTB read misses
system.cpu1.dtb.write_accesses                      0                       # DTB write accesses
system.cpu1.dtb.write_hits                          0                       # DTB write hits
system.cpu1.dtb.write_misses                        0                       # DTB write misses
system.cpu1.fetch.Branches                   20951290                       # Number of branches that fetch encountered
system.cpu1.fetch.CacheLines                 12771344                       # Number of cache lines fetched
system.cpu1.fetch.Cycles                    321245615                       # Number of cycles fetch has run and was not squashing or blocked
system.cpu1.fetch.IcacheSquashes               116942                       # Number of outstanding Icache misses that were squashed
system.cpu1.fetch.IcacheWaitRetryStallCycles           21                       # Number of stall cycles due to full MSHR
system.cpu1.fetch.Insts                     101040922                       # Number of instructions fetch has processed
system.cpu1.fetch.MiscStallCycles                   2                       # Number of cycles fetch has spent waiting on interrupts, or bad addresses, or out of MSHRs
system.cpu1.fetch.SquashCycles                3788732                       # Number of cycles fetch has spent squashing
system.cpu1.fetch.branchRate                 0.062107                       # Number of branch fetches per cycle
system.cpu1.fetch.icacheStallCycles          13944044                       # Number of cycles fetch is stalled on an Icache miss
system.cpu1.fetch.predictedBranches          10189143                       # Number of branches that fetch has predicted taken
system.cpu1.fetch.rate                       0.299520                       # Number of inst fetches per cycle
system.cpu1.fetch.rateDist::samples         337084048                       # Number of instructions fetched each cycle (Total)
system.cpu1.fetch.rateDist::mean             0.311549                       # Number of instructions fetched each cycle (Total)
system.cpu1.fetch.rateDist::stdev            0.809318                       # Number of instructions fetched each cycle (Total)
system.cpu1.fetch.rateDist::underflows              0      0.00%      0.00% # Number of instructions fetched each cycle (Total)
system.cpu1.fetch.rateDist::0               277892339     82.44%     82.44% # Number of instructions fetched each cycle (Total)
system.cpu1.fetch.rateDist::1                31597930      9.37%     91.81% # Number of instructions fetched each cycle (Total)
system.cpu1.fetch.rateDist::2                16694734      4.95%     96.77% # Number of instructions fetched each cycle (Total)
system.cpu1.fetch.rateDist::3                 5951467      1.77%     98.53% # Number of instructions fetched each cycle (Total)
system.cpu1.fetch.rateDist::4                 3015433      0.89%     99.43% # Number of instructions fetched each cycle (Total)
system.cpu1.fetch.rateDist::5                 1485362      0.44%     99.87% # Number of instructions fetched each cycle (Total)
system.cpu1.fetch.rateDist::6                  443074      0.13%    100.00% # Number of instructions fetched each cycle (Total)
system.cpu1.fetch.rateDist::7                     140      0.00%    100.00% # Number of instructions fetched each cycle (Total)
system.cpu1.fetch.rateDist::8                    3569      0.00%    100.00% # Number of instructions fetched each cycle (Total)
system.cpu1.fetch.rateDist::overflows               0      0.00%    100.00% # Number of instructions fetched each cycle (Total)
system.cpu1.fetch.rateDist::min_value               0                       # Number of instructions fetched each cycle (Total)
system.cpu1.fetch.rateDist::max_value               8                       # Number of instructions fetched each cycle (Total)
system.cpu1.fetch.rateDist::total           337084048                       # Number of instructions fetched each cycle (Total)
system.cpu1.fp_regfile_reads                       12                       # number of floating regfile reads
system.cpu1.idleCycles                         258831                       # Total number of cycles that the CPU has spent unscheduled due to idling
system.cpu1.iew.branchMispredicts             1181861                       # Number of branch mispredicts detected at execute
system.cpu1.iew.exec_branches                14814320                       # Number of branches executed
system.cpu1.iew.exec_nop                            0                       # number of nop insts executed
system.cpu1.iew.exec_rate                    0.192211                       # Inst execution rate
system.cpu1.iew.exec_refs                    22673025                       # number of memory reference insts executed
system.cpu1.iew.exec_stores                   5220209                       # Number of stores executed
system.cpu1.iew.exec_swp                            0                       # number of swp insts executed
system.cpu1.iew.iewBlockCycles              246297831                       # Number of cycles IEW is blocking
system.cpu1.iew.iewDispLoadInsts             22604554                       # Number of dispatched load instructions
system.cpu1.iew.iewDispNonSpecInsts           2712008                       # Number of dispatched non-speculative instructions
system.cpu1.iew.iewDispSquashedInsts          1744125                       # Number of squashed instructions skipped by dispatch
system.cpu1.iew.iewDispStoreInsts             7087287                       # Number of dispatched store instructions
system.cpu1.iew.iewDispatchedInsts           79443009                       # Number of instructions dispatched to IQ
system.cpu1.iew.iewExecLoadInsts             17452816                       # Number of load instructions executed
system.cpu1.iew.iewExecSquashedInsts           774314                       # Number of squashed instructions skipped in execute
system.cpu1.iew.iewExecutedInsts             64840862                       # Number of executed instructions
system.cpu1.iew.iewIQFullEvents               1550952                       # Number of times the IQ has become full, causing a stall
system.cpu1.iew.iewIdleCycles                       0                       # Number of cycles IEW is idle
system.cpu1.iew.iewLSQFullEvents              2039342                       # Number of times the LSQ has become full, causing a stall
system.cpu1.iew.iewSquashCycles               1111104                       # Number of cycles IEW is squashing
system.cpu1.iew.iewUnblockCycles              5489309                       # Number of cycles IEW is unblocking
system.cpu1.iew.lsq.thread0.blockedLoads            0                       # Number of blocked loads due to partial load-store forwarding
system.cpu1.iew.lsq.thread0.cacheBlocked        36395                       # Number of times an access to memory failed due to the cache being blocked
system.cpu1.iew.lsq.thread0.forwLoads          310943                       # Number of loads that had data forwarded from stores
system.cpu1.iew.lsq.thread0.ignoredResponses         9026                       # Number of memory responses ignored because the instruction is squashed
system.cpu1.iew.lsq.thread0.invAddrLoads            0                       # Number of loads ignored due to an invalid address
system.cpu1.iew.lsq.thread0.invAddrSwpfs            0                       # Number of software prefetches ignored due to an invalid address
system.cpu1.iew.lsq.thread0.memOrderViolation          603                       # Number of memory ordering violations
system.cpu1.iew.lsq.thread0.rescheduledLoads         3184                       # Number of loads that were rescheduled
system.cpu1.iew.lsq.thread0.squashedLoads      6476499                       # Number of loads squashed
system.cpu1.iew.lsq.thread0.squashedStores      1956645                       # Number of stores squashed
system.cpu1.iew.memOrderViolationEvents           603                       # Number of memory order violations
system.cpu1.iew.predictedNotTakenIncorrect       208039                       # Number of branches that were predicted not taken incorrectly
system.cpu1.iew.predictedTakenIncorrect        973822                       # Number of branches that were predicted taken incorrectly
system.cpu1.iew.wb_consumers                 36894914                       # num instructions consuming a value
system.cpu1.iew.wb_count                     64294332                       # cumulative count of insts written-back
system.cpu1.iew.wb_fanout                    0.846104                       # average fanout of values written-back
system.cpu1.iew.wb_producers                 31216916                       # num instructions producing a value
system.cpu1.iew.wb_rate                      0.190590                       # insts written-back per cycle
system.cpu1.iew.wb_sent                      64310353                       # cumulative count of insts sent to commit
system.cpu1.int_regfile_reads                80963980                       # number of integer regfile reads
system.cpu1.int_regfile_writes               42742660                       # number of integer regfile writes
system.cpu1.ipc                              0.163307                       # IPC: Instructions Per Cycle
system.cpu1.ipc_total                        0.163307                       # IPC: Total IPC of All Threads
system.cpu1.iq.FU_type_0::No_OpClass          3622626      5.52%      5.52% # Type of FU issued
system.cpu1.iq.FU_type_0::IntAlu             39172253     59.70%     65.22% # Type of FU issued
system.cpu1.iq.FU_type_0::IntMult                  46      0.00%     65.22% # Type of FU issued
system.cpu1.iq.FU_type_0::IntDiv                   86      0.00%     65.22% # Type of FU issued
system.cpu1.iq.FU_type_0::FloatAdd                  0      0.00%     65.22% # Type of FU issued
system.cpu1.iq.FU_type_0::FloatCmp                  0      0.00%     65.22% # Type of FU issued
system.cpu1.iq.FU_type_0::FloatCvt                  0      0.00%     65.22% # Type of FU issued
system.cpu1.iq.FU_type_0::FloatMult                 0      0.00%     65.22% # Type of FU issued
system.cpu1.iq.FU_type_0::FloatMultAcc              0      0.00%     65.22% # Type of FU issued
system.cpu1.iq.FU_type_0::FloatDiv                  0      0.00%     65.22% # Type of FU issued
system.cpu1.iq.FU_type_0::FloatMisc                 0      0.00%     65.22% # Type of FU issued
system.cpu1.iq.FU_type_0::FloatSqrt                 0      0.00%     65.22% # Type of FU issued
system.cpu1.iq.FU_type_0::SimdAdd                   0      0.00%     65.22% # Type of FU issued
system.cpu1.iq.FU_type_0::SimdAddAcc                0      0.00%     65.22% # Type of FU issued
system.cpu1.iq.FU_type_0::SimdAlu                   0      0.00%     65.22% # Type of FU issued
system.cpu1.iq.FU_type_0::SimdCmp                   0      0.00%     65.22% # Type of FU issued
system.cpu1.iq.FU_type_0::SimdCvt                   0      0.00%     65.22% # Type of FU issued
system.cpu1.iq.FU_type_0::SimdMisc                  0      0.00%     65.22% # Type of FU issued
system.cpu1.iq.FU_type_0::SimdMult                  0      0.00%     65.22% # Type of FU issued
system.cpu1.iq.FU_type_0::SimdMultAcc               0      0.00%     65.22% # Type of FU issued
system.cpu1.iq.FU_type_0::SimdShift                 0      0.00%     65.22% # Type of FU issued
system.cpu1.iq.FU_type_0::SimdShiftAcc              0      0.00%     65.22% # Type of FU issued
system.cpu1.iq.FU_type_0::SimdDiv                   0      0.00%     65.22% # Type of FU issued
system.cpu1.iq.FU_type_0::SimdSqrt                  0      0.00%     65.22% # Type of FU issued
system.cpu1.iq.FU_type_0::SimdFloatAdd              0      0.00%     65.22% # Type of FU issued
system.cpu1.iq.FU_type_0::SimdFloatAlu              0      0.00%     65.22% # Type of FU issued
system.cpu1.iq.FU_type_0::SimdFloatCmp              0      0.00%     65.22% # Type of FU issued
system.cpu1.iq.FU_type_0::SimdFloatCvt              0      0.00%     65.22% # Type of FU issued
system.cpu1.iq.FU_type_0::SimdFloatDiv              0      0.00%     65.22% # Type of FU issued
system.cpu1.iq.FU_type_0::SimdFloatMisc             0      0.00%     65.22% # Type of FU issued
system.cpu1.iq.FU_type_0::SimdFloatMult             0      0.00%     65.22% # Type of FU issued
system.cpu1.iq.FU_type_0::SimdFloatMultAcc            0      0.00%     65.22% # Type of FU issued
system.cpu1.iq.FU_type_0::SimdFloatSqrt             0      0.00%     65.22% # Type of FU issued
system.cpu1.iq.FU_type_0::SimdReduceAdd             0      0.00%     65.22% # Type of FU issued
system.cpu1.iq.FU_type_0::SimdReduceAlu             0      0.00%     65.22% # Type of FU issued
system.cpu1.iq.FU_type_0::SimdReduceCmp             0      0.00%     65.22% # Type of FU issued
system.cpu1.iq.FU_type_0::SimdFloatReduceAdd            0      0.00%     65.22% # Type of FU issued
system.cpu1.iq.FU_type_0::SimdFloatReduceCmp            0      0.00%     65.22% # Type of FU issued
system.cpu1.iq.FU_type_0::SimdAes                   0      0.00%     65.22% # Type of FU issued
system.cpu1.iq.FU_type_0::SimdAesMix                0      0.00%     65.22% # Type of FU issued
system.cpu1.iq.FU_type_0::SimdSha1Hash              0      0.00%     65.22% # Type of FU issued
system.cpu1.iq.FU_type_0::SimdSha1Hash2             0      0.00%     65.22% # Type of FU issued
system.cpu1.iq.FU_type_0::SimdSha256Hash            0      0.00%     65.22% # Type of FU issued
system.cpu1.iq.FU_type_0::SimdSha256Hash2            0      0.00%     65.22% # Type of FU issued
system.cpu1.iq.FU_type_0::SimdShaSigma2             0      0.00%     65.22% # Type of FU issued
system.cpu1.iq.FU_type_0::SimdShaSigma3             0      0.00%     65.22% # Type of FU issued
system.cpu1.iq.FU_type_0::SimdPredAlu               0      0.00%     65.22% # Type of FU issued
system.cpu1.iq.FU_type_0::MemRead            19396959     29.56%     94.78% # Type of FU issued
system.cpu1.iq.FU_type_0::MemWrite            3423194      5.22%    100.00% # Type of FU issued
system.cpu1.iq.FU_type_0::FloatMemRead              0      0.00%    100.00% # Type of FU issued
system.cpu1.iq.FU_type_0::FloatMemWrite            12      0.00%    100.00% # Type of FU issued
system.cpu1.iq.FU_type_0::IprAccess                 0      0.00%    100.00% # Type of FU issued
system.cpu1.iq.FU_type_0::InstPrefetch              0      0.00%    100.00% # Type of FU issued
system.cpu1.iq.FU_type_0::total              65615176                       # Type of FU issued
system.cpu1.iq.fp_alu_accesses                     14                       # Number of floating point alu accesses
system.cpu1.iq.fp_inst_queue_reads                 26                       # Number of floating instruction queue reads
system.cpu1.iq.fp_inst_queue_wakeup_accesses           12                       # Number of floating instruction queue wakeup accesses
system.cpu1.iq.fp_inst_queue_writes                12                       # Number of floating instruction queue writes
system.cpu1.iq.fu_busy_cnt                    1982026                       # FU busy when requested
system.cpu1.iq.fu_busy_rate                  0.030207                       # FU busy rate (busy events/executed inst)
system.cpu1.iq.fu_full::No_OpClass                  0      0.00%      0.00% # attempts to use FU when none available
system.cpu1.iq.fu_full::IntAlu                 344790     17.40%     17.40% # attempts to use FU when none available
system.cpu1.iq.fu_full::IntMult                     0      0.00%     17.40% # attempts to use FU when none available
system.cpu1.iq.fu_full::IntDiv                      0      0.00%     17.40% # attempts to use FU when none available
system.cpu1.iq.fu_full::FloatAdd                    0      0.00%     17.40% # attempts to use FU when none available
system.cpu1.iq.fu_full::FloatCmp                    0      0.00%     17.40% # attempts to use FU when none available
system.cpu1.iq.fu_full::FloatCvt                    0      0.00%     17.40% # attempts to use FU when none available
system.cpu1.iq.fu_full::FloatMult                   0      0.00%     17.40% # attempts to use FU when none available
system.cpu1.iq.fu_full::FloatMultAcc                0      0.00%     17.40% # attempts to use FU when none available
system.cpu1.iq.fu_full::FloatDiv                    0      0.00%     17.40% # attempts to use FU when none available
system.cpu1.iq.fu_full::FloatMisc                   0      0.00%     17.40% # attempts to use FU when none available
system.cpu1.iq.fu_full::FloatSqrt                   0      0.00%     17.40% # attempts to use FU when none available
system.cpu1.iq.fu_full::SimdAdd                     0      0.00%     17.40% # attempts to use FU when none available
system.cpu1.iq.fu_full::SimdAddAcc                  0      0.00%     17.40% # attempts to use FU when none available
system.cpu1.iq.fu_full::SimdAlu                     0      0.00%     17.40% # attempts to use FU when none available
system.cpu1.iq.fu_full::SimdCmp                     0      0.00%     17.40% # attempts to use FU when none available
system.cpu1.iq.fu_full::SimdCvt                     0      0.00%     17.40% # attempts to use FU when none available
system.cpu1.iq.fu_full::SimdMisc                    0      0.00%     17.40% # attempts to use FU when none available
system.cpu1.iq.fu_full::SimdMult                    0      0.00%     17.40% # attempts to use FU when none available
system.cpu1.iq.fu_full::SimdMultAcc                 0      0.00%     17.40% # attempts to use FU when none available
system.cpu1.iq.fu_full::SimdShift                   0      0.00%     17.40% # attempts to use FU when none available
system.cpu1.iq.fu_full::SimdShiftAcc                0      0.00%     17.40% # attempts to use FU when none available
system.cpu1.iq.fu_full::SimdDiv                     0      0.00%     17.40% # attempts to use FU when none available
system.cpu1.iq.fu_full::SimdSqrt                    0      0.00%     17.40% # attempts to use FU when none available
system.cpu1.iq.fu_full::SimdFloatAdd                0      0.00%     17.40% # attempts to use FU when none available
system.cpu1.iq.fu_full::SimdFloatAlu                0      0.00%     17.40% # attempts to use FU when none available
system.cpu1.iq.fu_full::SimdFloatCmp                0      0.00%     17.40% # attempts to use FU when none available
system.cpu1.iq.fu_full::SimdFloatCvt                0      0.00%     17.40% # attempts to use FU when none available
system.cpu1.iq.fu_full::SimdFloatDiv                0      0.00%     17.40% # attempts to use FU when none available
system.cpu1.iq.fu_full::SimdFloatMisc               0      0.00%     17.40% # attempts to use FU when none available
system.cpu1.iq.fu_full::SimdFloatMult               0      0.00%     17.40% # attempts to use FU when none available
system.cpu1.iq.fu_full::SimdFloatMultAcc            0      0.00%     17.40% # attempts to use FU when none available
system.cpu1.iq.fu_full::SimdFloatSqrt               0      0.00%     17.40% # attempts to use FU when none available
system.cpu1.iq.fu_full::SimdReduceAdd               0      0.00%     17.40% # attempts to use FU when none available
system.cpu1.iq.fu_full::SimdReduceAlu               0      0.00%     17.40% # attempts to use FU when none available
system.cpu1.iq.fu_full::SimdReduceCmp               0      0.00%     17.40% # attempts to use FU when none available
system.cpu1.iq.fu_full::SimdFloatReduceAdd            0      0.00%     17.40% # attempts to use FU when none available
system.cpu1.iq.fu_full::SimdFloatReduceCmp            0      0.00%     17.40% # attempts to use FU when none available
system.cpu1.iq.fu_full::SimdAes                     0      0.00%     17.40% # attempts to use FU when none available
system.cpu1.iq.fu_full::SimdAesMix                  0      0.00%     17.40% # attempts to use FU when none available
system.cpu1.iq.fu_full::SimdSha1Hash                0      0.00%     17.40% # attempts to use FU when none available
system.cpu1.iq.fu_full::SimdSha1Hash2               0      0.00%     17.40% # attempts to use FU when none available
system.cpu1.iq.fu_full::SimdSha256Hash              0      0.00%     17.40% # attempts to use FU when none available
system.cpu1.iq.fu_full::SimdSha256Hash2             0      0.00%     17.40% # attempts to use FU when none available
system.cpu1.iq.fu_full::SimdShaSigma2               0      0.00%     17.40% # attempts to use FU when none available
system.cpu1.iq.fu_full::SimdShaSigma3               0      0.00%     17.40% # attempts to use FU when none available
system.cpu1.iq.fu_full::SimdPredAlu                 0      0.00%     17.40% # attempts to use FU when none available
system.cpu1.iq.fu_full::MemRead               1447406     73.03%     90.42% # attempts to use FU when none available
system.cpu1.iq.fu_full::MemWrite               189828      9.58%    100.00% # attempts to use FU when none available
[...]
system.cpu1.dcache.ReadReq_avg_mshr_miss_latency::total 95196.448077                       # average ReadReq mshr miss latency
system.cpu1.dcache.WriteReq_hits::.cpu1.data       777763                       # number of WriteReq hits
system.cpu1.dcache.WriteReq_hits::total        777763                       # number of WriteReq hits
system.cpu1.dcache.WriteReq_misses::.cpu1.data       598969                       # number of WriteReq misses
system.cpu1.dcache.WriteReq_misses::total       598969                       # number of WriteReq misses
system.cpu1.dcache.WriteReq_miss_latency::.cpu1.data  47687227276                       # number of WriteReq miss cycles
system.cpu1.dcache.WriteReq_miss_latency::total  47687227276                       # number of WriteReq miss cycles
system.cpu1.dcache.WriteReq_accesses::.cpu1.data      1376732                       # number of WriteReq accesses(hits+misses)
system.cpu1.dcache.WriteReq_accesses::total      1376732                       # number of WriteReq accesses(hits+misses)
system.cpu1.dcache.WriteReq_miss_rate::.cpu1.data     0.435066                       # miss rate for WriteReq accesses
system.cpu1.dcache.WriteReq_miss_rate::total     0.435066                       # miss rate for WriteReq accesses
system.cpu1.dcache.WriteReq_avg_miss_latency::.cpu1.data 79615.518125                       # average WriteReq miss latency
system.cpu1.dcache.WriteReq_avg_miss_latency::total 79615.518125                       # average WriteReq miss latency
system.cpu1.dcache.WriteReq_mshr_hits::.cpu1.data       556496                       # number of WriteReq MSHR hits
system.cpu1.dcache.WriteReq_mshr_hits::total       556496                       # number of WriteReq MSHR hits
system.cpu1.dcache.WriteReq_mshr_misses::.cpu1.data        42473                       # number of WriteReq MSHR misses
system.cpu1.dcache.WriteReq_mshr_misses::total        42473                       # number of WriteReq MSHR misses
system.cpu1.dcache.WriteReq_mshr_miss_latency::.cpu1.data   4190616318                       # number of WriteReq MSHR miss cycles
system.cpu1.dcache.WriteReq_mshr_miss_latency::total   4190616318                       # number of WriteReq MSHR miss cycles
system.cpu1.dcache.WriteReq_mshr_miss_rate::.cpu1.data     0.030851                       # mshr miss rate for WriteReq accesses
system.cpu1.dcache.WriteReq_mshr_miss_rate::total     0.030851                       # mshr miss rate for WriteReq accesses
system.cpu1.dcache.WriteReq_avg_mshr_miss_latency::.cpu1.data 98665.418454                       # average WriteReq mshr miss latency
system.cpu1.dcache.WriteReq_avg_mshr_miss_latency::total 98665.418454                       # average WriteReq mshr miss latency
system.cpu1.dcache.LoadLockedReq_hits::.cpu1.data          673                       # number of LoadLockedReq hits
system.cpu1.dcache.LoadLockedReq_hits::total          673                       # number of LoadLockedReq hits
system.cpu1.dcache.LoadLockedReq_misses::.cpu1.data          175                       # number of LoadLockedReq misses
system.cpu1.dcache.LoadLockedReq_misses::total          175                       # number of LoadLockedReq misses
system.cpu1.dcache.LoadLockedReq_miss_latency::.cpu1.data     13119500                       # number of LoadLockedReq miss cycles
system.cpu1.dcache.LoadLockedReq_miss_latency::total     13119500                       # number of LoadLockedReq miss cycles
system.cpu1.dcache.LoadLockedReq_accesses::.cpu1.data          848                       # number of LoadLockedReq accesses(hits+misses)
system.cpu1.dcache.LoadLockedReq_accesses::total          848                       # number of LoadLockedReq accesses(hits+misses)
system.cpu1.dcache.LoadLockedReq_miss_rate::.cpu1.data     0.206368                       # miss rate for LoadLockedReq accesses
system.cpu1.dcache.LoadLockedReq_miss_rate::total     0.206368                       # miss rate for LoadLockedReq accesses
system.cpu1.dcache.LoadLockedReq_avg_miss_latency::.cpu1.data 74968.571429                       # average LoadLockedReq miss latency
system.cpu1.dcache.LoadLockedReq_avg_miss_latency::total 74968.571429                       # average LoadLockedReq miss latency
system.cpu1.dcache.LoadLockedReq_mshr_hits::.cpu1.data           87                       # number of LoadLockedReq MSHR hits
system.cpu1.dcache.LoadLockedReq_mshr_hits::total           87                       # number of LoadLockedReq MSHR hits
system.cpu1.dcache.LoadLockedReq_mshr_misses::.cpu1.data           88                       # number of LoadLockedReq MSHR misses
system.cpu1.dcache.LoadLockedReq_mshr_misses::total           88                       # number of LoadLockedReq MSHR misses
system.cpu1.dcache.LoadLockedReq_mshr_miss_latency::.cpu1.data      6588500                       # number of LoadLockedReq MSHR miss cycles
system.cpu1.dcache.LoadLockedReq_mshr_miss_latency::total      6588500                       # number of LoadLockedReq MSHR miss cycles
system.cpu1.dcache.LoadLockedReq_mshr_miss_rate::.cpu1.data     0.103774                       # mshr miss rate for LoadLockedReq accesses
system.cpu1.dcache.LoadLockedReq_mshr_miss_rate::total     0.103774                       # mshr miss rate for LoadLockedReq accesses
system.cpu1.dcache.LoadLockedReq_avg_mshr_miss_latency::.cpu1.data 74869.318182                       # average LoadLockedReq mshr miss latency
system.cpu1.dcache.LoadLockedReq_avg_mshr_miss_latency::total 74869.318182                       # average LoadLockedReq mshr miss latency
system.cpu1.dcache.StoreCondReq_hits::.cpu1.data          566                       # number of StoreCondReq hits
system.cpu1.dcache.StoreCondReq_hits::total          566                       # number of StoreCondReq hits
system.cpu1.dcache.StoreCondReq_misses::.cpu1.data          231                       # number of StoreCondReq misses
system.cpu1.dcache.StoreCondReq_misses::total          231                       # number of StoreCondReq misses
system.cpu1.dcache.StoreCondReq_miss_latency::.cpu1.data      1876500                       # number of StoreCondReq miss cycles
system.cpu1.dcache.StoreCondReq_miss_latency::total      1876500                       # number of StoreCondReq miss cycles
system.cpu1.dcache.StoreCondReq_accesses::.cpu1.data          797                       # number of StoreCondReq accesses(hits+misses)
system.cpu1.dcache.StoreCondReq_accesses::total          797                       # number of StoreCondReq accesses(hits+misses)
system.cpu1.dcache.StoreCondReq_miss_rate::.cpu1.data     0.289837                       # miss rate for StoreCondReq accesses
system.cpu1.dcache.StoreCondReq_miss_rate::total     0.289837                       # miss rate for StoreCondReq accesses
system.cpu1.dcache.StoreCondReq_avg_miss_latency::.cpu1.data  8123.376623                       # average StoreCondReq miss latency
system.cpu1.dcache.StoreCondReq_avg_miss_latency::total  8123.376623                       # average StoreCondReq miss latency
system.cpu1.dcache.StoreCondReq_mshr_misses::.cpu1.data          231                       # number of StoreCondReq MSHR misses
system.cpu1.dcache.StoreCondReq_mshr_misses::total          231                       # number of StoreCondReq MSHR misses
system.cpu1.dcache.StoreCondReq_mshr_miss_latency::.cpu1.data      1646500                       # number of StoreCondReq MSHR miss cycles
system.cpu1.dcache.StoreCondReq_mshr_miss_latency::total      1646500                       # number of StoreCondReq MSHR miss cycles
system.cpu1.dcache.StoreCondReq_mshr_miss_rate::.cpu1.data     0.289837                       # mshr miss rate for StoreCondReq accesses
system.cpu1.dcache.StoreCondReq_mshr_miss_rate::total     0.289837                       # mshr miss rate for StoreCondReq accesses
system.cpu1.dcache.StoreCondReq_avg_mshr_miss_latency::.cpu1.data  7127.705628                       # average StoreCondReq mshr miss latency
system.cpu1.dcache.StoreCondReq_avg_mshr_miss_latency::total  7127.705628                       # average StoreCondReq mshr miss latency
system.cpu1.dcache.StoreCondFailReq_miss_latency::.cpu1.data        33500                       # number of StoreCondFailReq miss cycles
system.cpu1.dcache.StoreCondFailReq_miss_latency::total        33500                       # number of StoreCondFailReq miss cycles
system.cpu1.dcache.StoreCondFailReq_avg_miss_latency::.cpu1.data          inf                       # average StoreCondFailReq miss latency
system.cpu1.dcache.StoreCondFailReq_avg_miss_latency::total          inf                       # average StoreCondFailReq miss latency
system.cpu1.dcache.StoreCondFailReq_mshr_miss_latency::.cpu1.data        32500                       # number of StoreCondFailReq MSHR miss cycles
system.cpu1.dcache.StoreCondFailReq_mshr_miss_latency::total        32500                       # number of StoreCondFailReq MSHR miss cycles
system.cpu1.dcache.StoreCondFailReq_avg_mshr_miss_latency::.cpu1.data          inf                       # average StoreCondFailReq mshr miss latency
system.cpu1.dcache.StoreCondFailReq_avg_mshr_miss_latency::total          inf                       # average StoreCondFailReq mshr miss latency
system.cpu1.dcache.SwapReq_hits::.cpu1.data          298                       # number of SwapReq hits
system.cpu1.dcache.SwapReq_hits::total            298                       # number of SwapReq hits
system.cpu1.dcache.SwapReq_misses::.cpu1.data          167                       # number of SwapReq misses
system.cpu1.dcache.SwapReq_misses::total          167                       # number of SwapReq misses
system.cpu1.dcache.SwapReq_miss_latency::.cpu1.data      1078000                       # number of SwapReq miss cycles
system.cpu1.dcache.SwapReq_miss_latency::total      1078000                       # number of SwapReq miss cycles
system.cpu1.dcache.SwapReq_accesses::.cpu1.data          465                       # number of SwapReq accesses(hits+misses)
system.cpu1.dcache.SwapReq_accesses::total          465                       # number of SwapReq accesses(hits+misses)
system.cpu1.dcache.SwapReq_miss_rate::.cpu1.data     0.359140                       # miss rate for SwapReq accesses
system.cpu1.dcache.SwapReq_miss_rate::total     0.359140                       # miss rate for SwapReq accesses
system.cpu1.dcache.SwapReq_avg_miss_latency::.cpu1.data  6455.089820                       # average SwapReq miss latency
system.cpu1.dcache.SwapReq_avg_miss_latency::total  6455.089820                       # average SwapReq miss latency
system.cpu1.dcache.SwapReq_mshr_misses::.cpu1.data          167                       # number of SwapReq MSHR misses
system.cpu1.dcache.SwapReq_mshr_misses::total          167                       # number of SwapReq MSHR misses
system.cpu1.dcache.SwapReq_mshr_miss_latency::.cpu1.data       911000                       # number of SwapReq MSHR miss cycles
system.cpu1.dcache.SwapReq_mshr_miss_latency::total       911000                       # number of SwapReq MSHR miss cycles
system.cpu1.dcache.SwapReq_mshr_miss_rate::.cpu1.data     0.359140                       # mshr miss rate for SwapReq accesses
system.cpu1.dcache.SwapReq_mshr_miss_rate::total     0.359140                       # mshr miss rate for SwapReq accesses
system.cpu1.dcache.SwapReq_avg_mshr_miss_latency::.cpu1.data  5455.089820                       # average SwapReq mshr miss latency
system.cpu1.dcache.SwapReq_avg_mshr_miss_latency::total  5455.089820                       # average SwapReq mshr miss latency
system.cpu1.dcache.tags.pwrStateResidencyTicks::UNDEFINED 605615298000                       # Cumulative time (in ticks) in various power states
system.cpu1.dcache.tags.tagsinuse           31.979692                       # Cycle average of tags in use
system.cpu1.dcache.tags.total_refs           17626436                       # Total number of references to valid blocks.
system.cpu1.dcache.tags.sampled_refs          2047279                       # Sample count of references to valid blocks.
system.cpu1.dcache.tags.avg_refs             8.609689                       # Average number of references to valid blocks.
system.cpu1.dcache.tags.warmup_cycle                0                       # Cycle when the warmup percentage was hit.
system.cpu1.dcache.tags.occ_blocks::.cpu1.data    31.979692                       # Average occupied blocks per requestor
system.cpu1.dcache.tags.occ_percent::.cpu1.data     0.999365                       # Average percentage of cache occupancy
system.cpu1.dcache.tags.occ_percent::total     0.999365                       # Average percentage of cache occupancy
system.cpu1.dcache.tags.occ_task_id_blocks::1024           29                       # Occupied blocks per task id
system.cpu1.dcache.tags.age_task_id_blocks_1024::1           29                       # Occupied blocks per task id
system.cpu1.dcache.tags.occ_task_id_percent::1024     0.906250                       # Percentage of cache occupancy per task id
system.cpu1.dcache.tags.tag_accesses         43684586                       # Number of tag accesses
system.cpu1.dcache.tags.data_accesses        43684586                       # Number of data accesses
system.cpu_clk_domain.clock                       500                       # Clock period in ticks
system.tol2bus.pwrStateResidencyTicks::UNDEFINED 605615298000                       # Cumulative time (in ticks) in various power states
system.tol2bus.trans_dist::ReadResp          25260699                       # Transaction distribution
system.tol2bus.trans_dist::WritebackDirty       904603                       # Transaction distribution
system.tol2bus.trans_dist::WritebackClean     24858298                       # Transaction distribution
system.tol2bus.trans_dist::CleanEvict        67805777                       # Transaction distribution
system.tol2bus.trans_dist::HardPFReq         44967410                       # Transaction distribution
system.tol2bus.trans_dist::HardPFResp               1                       # Transaction distribution
system.tol2bus.trans_dist::UpgradeReq            1769                       # Transaction distribution
system.tol2bus.trans_dist::SCUpgradeReq           460                       # Transaction distribution
system.tol2bus.trans_dist::UpgradeResp           2229                       # Transaction distribution
system.tol2bus.trans_dist::SCUpgradeFailReq            1                       # Transaction distribution
system.tol2bus.trans_dist::UpgradeFailResp            1                       # Transaction distribution
system.tol2bus.trans_dist::ReadExReq            85583                       # Transaction distribution
system.tol2bus.trans_dist::ReadExResp           85583                       # Transaction distribution
system.tol2bus.trans_dist::ReadCleanReq         18021                       # Transaction distribution
system.tol2bus.trans_dist::ReadSharedReq     25242678                       # Transaction distribution
system.tol2bus.pkt_count_system.cpu0.icache.mem_side::system.l2.cpu_side        46269                       # Packet count per connected master and slave (bytes)
system.tol2bus.pkt_count_system.cpu0.dcache.mem_side::system.l2.cpu_side     69841669                       # Packet count per connected master and slave (bytes)
system.tol2bus.pkt_count_system.cpu1.icache.mem_side::system.l2.cpu_side         7794                       # Packet count per connected master and slave (bytes)
system.tol2bus.pkt_count_system.cpu1.dcache.mem_side::system.l2.cpu_side      6137802                       # Packet count per connected master and slave (bytes)
system.tol2bus.pkt_count::total              76033534                       # Packet count per connected master and slave (bytes)
system.tol2bus.pkt_size_system.cpu0.icache.mem_side::system.l2.cpu_side      1974144                       # Cumulative packet size per connected master and slave (bytes)
system.tol2bus.pkt_size_system.cpu0.dcache.mem_side::system.l2.cpu_side   2979734912                       # Cumulative packet size per connected master and slave (bytes)
system.tol2bus.pkt_size_system.cpu1.icache.mem_side::system.l2.cpu_side       332544                       # Cumulative packet size per connected master and slave (bytes)
system.tol2bus.pkt_size_system.cpu1.dcache.mem_side::system.l2.cpu_side    261742592                       # Cumulative packet size per connected master and slave (bytes)
system.tol2bus.pkt_size::total             3243784192                       # Cumulative packet size per connected master and slave (bytes)
system.tol2bus.snoops                       113199580                       # Total snoops (count)
system.tol2bus.snoopTraffic                  27203712                       # Total snoop traffic (bytes)
system.tol2bus.snoop_fanout::samples        138557090                       # Request fanout histogram
system.tol2bus.snoop_fanout::mean            0.160721                       # Request fanout histogram
system.tol2bus.snoop_fanout::stdev           0.369332                       # Request fanout histogram
system.tol2bus.snoop_fanout::underflows             0      0.00%      0.00% # Request fanout histogram
system.tol2bus.snoop_fanout::0              116393137     84.00%     84.00% # Request fanout histogram
system.tol2bus.snoop_fanout::1               22058879     15.92%     99.92% # Request fanout histogram
system.tol2bus.snoop_fanout::2                 105074      0.08%    100.00% # Request fanout histogram
system.tol2bus.snoop_fanout::3                      0      0.00%    100.00% # Request fanout histogram
system.tol2bus.snoop_fanout::4                      0      0.00%    100.00% # Request fanout histogram
system.tol2bus.snoop_fanout::5                      0      0.00%    100.00% # Request fanout histogram
system.tol2bus.snoop_fanout::6                      0      0.00%    100.00% # Request fanout histogram
system.tol2bus.snoop_fanout::7                      0      0.00%    100.00% # Request fanout histogram
system.tol2bus.snoop_fanout::8                      0      0.00%    100.00% # Request fanout histogram
system.tol2bus.snoop_fanout::overflows              0      0.00%    100.00% # Request fanout histogram
system.tol2bus.snoop_fanout::min_value              0                       # Request fanout histogram
system.tol2bus.snoop_fanout::max_value              2                       # Request fanout histogram
system.tol2bus.snoop_fanout::total          138557090                       # Request fanout histogram
system.tol2bus.reqLayer0.occupancy        50724918993                       # Layer occupancy (ticks)
system.tol2bus.reqLayer0.utilization              8.4                       # Layer utilization (%)
system.tol2bus.respLayer1.occupancy       34925476666                       # Layer occupancy (ticks)
system.tol2bus.respLayer1.utilization             5.8                       # Layer utilization (%)
system.tol2bus.respLayer0.occupancy          23145478                       # Layer occupancy (ticks)
system.tol2bus.respLayer0.utilization             0.0                       # Layer utilization (%)
system.tol2bus.respLayer3.occupancy        3073403075                       # Layer occupancy (ticks)
system.tol2bus.respLayer3.utilization             0.5                       # Layer utilization (%)
system.tol2bus.respLayer2.occupancy           3902988                       # Layer occupancy (ticks)
system.tol2bus.respLayer2.utilization             0.0                       # Layer utilization (%)
system.tol2bus.snoopLayer0.occupancy             1501                       # Layer occupancy (ticks)
system.tol2bus.snoopLayer0.utilization            0.0                       # Layer utilization (%)

---------- End Simulation Statistics   ----------
