Redirecting stdout to /vol1/msoyturk/gem5/results/cc/gowalla.el/prefetch_DCPTPrefetcher_SecondChanceRP/output.txt
Redirecting stderr to /vol1/msoyturk/gem5/results/cc/gowalla.el/prefetch_DCPTPrefetcher_SecondChanceRP/error.txt
gem5 Simulator System.  http://gem5.org
gem5 is copyrighted software; use the --copyright option for details.

gem5 compiled Apr 26 2020 13:32:47
gem5 started Apr 29 2020 01:46:18
gem5 executing on draco, pid 11229
command line: /vol1/msoyturk/gem5/build/RISCV/gem5.fast -re --outdir=/vol1/msoyturk/gem5/results/cc/gowalla.el/prefetch_DCPTPrefetcher_SecondChanceRP --stdout-file=output.txt --stderr-file=error.txt /vol1/msoyturk/gem5/configs/example/my_se.py -c /vol1/msoyturk/gem5/gapbs/cc -o '-f /vol1/msoyturk/gem5/gapbs/test/graphs/gowalla.el' --caches --l1d_size=2kB --l1i_size=2kB --cpu-type=DerivO3CPU -n 4 --mem-size=512MB --l2cache --l2_size=4kB --l2-hwp-type=DCPTPrefetcher --l2-replacement-policy=SecondChanceRP --l1i_mshrs=4 --l1d_mshrs=4 --l2_mshrs=20 --l1i_write_buffers=8 --l1d_write_buffers=8 --l2_write_buffers=8

info: Standard input is not a terminal, disabling listeners.
Warning: l2-hwp-type is set ( DCPTPrefetcher ), but the current l2 has a default Hardware Prefetcher of type <class 'm5.params.NullSimObject'> , using the specified by the flag option.
Global frequency set at 1000000000000 ticks per second
**** REAL SIMULATION ****
Read Time:           1.72363
Build Time:          0.32041
Graph has 196591 nodes and 1900654 directed edges for degree: 9
Skipping largest intermediate component (ID: 0, approx. 100% of the graph)
Trial Time:          0.01482
Skipping largest intermediate component (ID: 0, approx. 100% of the graph)
Trial Time:          0.01480
Skipping largest intermediate component (ID: 0, approx. 100% of the graph)
Trial Time:          0.01474
Skipping largest intermediate component (ID: 0, approx. 100% of the graph)
Trial Time:          0.01475
Skipping largest intermediate component (ID: 0, approx. 100% of the graph)
Trial Time:          0.01476
Skipping largest intermediate component (ID: 0, approx. 100% of the graph)
Trial Time:          0.01475
Skipping largest intermediate component (ID: 0, approx. 100% of the graph)
Trial Time:          0.01476
Skipping largest intermediate component (ID: 0, approx. 100% of the graph)
Trial Time:          0.01476
Skipping largest intermediate component (ID: 0, approx. 100% of the graph)
Trial Time:          0.01475
Skipping largest intermediate component (ID: 0, approx. 100% of the graph)
Trial Time:          0.01477
Skipping largest intermediate component (ID: 0, approx. 100% of the graph)
Trial Time:          0.01473
Skipping largest intermediate component (ID: 0, approx. 100% of the graph)
Trial Time:          0.01473
Skipping largest intermediate component (ID: 0, approx. 100% of the graph)
Trial Time:          0.01480
Skipping largest intermediate component (ID: 0, approx. 100% of the graph)
Trial Time:          0.01478
Skipping largest intermediate component (ID: 0, approx. 100% of the graph)
Trial Time:          0.01476
Skipping largest intermediate component (ID: 0, approx. 100% of the graph)
Trial Time:          0.01476
Average Time:        0.01476
Exiting @ tick 2408320370000 because exiting with last active thread context
