
---------- Begin Simulation Statistics ----------
final_tick                               1079729854000                       # Number of ticks from beginning of simulation (restored from checkpoints and never reset)
host_inst_rate                                  71092                       # Simulator instruction rate (inst/s)
host_mem_usage                                 702704                       # Number of bytes of host memory used
host_op_rate                                    71325                       # Simulator op (including micro ops) rate (op/s)
host_seconds                                 15554.42                       # Real time elapsed on the host
host_tick_rate                               69416270                       # Simulator tick rate (ticks/s)
sim_freq                                 1000000000000                       # Frequency of simulated ticks
sim_insts                                  1105790973                       # Number of instructions simulated
sim_ops                                    1109416379                       # Number of ops (including micro ops) simulated
sim_seconds                                  1.079730                       # Number of seconds simulated
sim_ticks                                1079729854000                       # Number of ticks simulated
system.cpu0.branchPred.BTBCorrect                   0                       # Number of correct BTB predictions (this stat may not work properly.
system.cpu0.branchPred.BTBHitPct            82.989289                       # BTB Hit Percentage
system.cpu0.branchPred.BTBHits              144277529                       # Number of BTB hits
system.cpu0.branchPred.BTBLookups           173850783                       # Number of BTB lookups
system.cpu0.branchPred.RASInCorrect                 0                       # Number of incorrect RAS predictions.
system.cpu0.branchPred.condIncorrect         20280346                       # Number of conditional branches incorrect
system.cpu0.branchPred.condPredicted        223106374                       # Number of conditional branches predicted
system.cpu0.branchPred.indirectHits          20387832                       # Number of indirect target hits.
system.cpu0.branchPred.indirectLookups       20631348                       # Number of indirect predictor lookups.
system.cpu0.branchPred.indirectMisses          243516                       # Number of indirect misses.
system.cpu0.branchPred.lookups              285363026                       # Number of BP lookups
system.cpu0.branchPred.usedRAS                      0                       # Number of times the RAS was used to get a target.
system.cpu0.branchPredindirectMispredicted      1864224                       # Number of mispredicted indirect branches.
system.cpu0.commit.amos                       1811478                       # Number of atomic instructions committed
system.cpu0.commit.branchMispredicts         12291200                       # The number of times a branch was mispredicted
system.cpu0.commit.branches                 260679018                       # Number of branches committed
system.cpu0.commit.bw_lim_events             32467656                       # number cycles where commit BW limit reached
system.cpu0.commit.commitNonSpecStalls        5441490                       # The number of times commit has been forced to stall to communicate backwards
system.cpu0.commit.commitSquashedInsts       94554597                       # The number of squashed insts skipped by commit
system.cpu0.commit.committedInsts          1050728125                       # Number of instructions committed
system.cpu0.commit.committedOps            1052542155                       # Number of ops (including micro ops) committed
system.cpu0.commit.committed_per_cycle::samples   1944917871                       # Number of insts commited each cycle
system.cpu0.commit.committed_per_cycle::mean     0.541176                       # Number of insts commited each cycle
system.cpu0.commit.committed_per_cycle::stdev     1.342009                       # Number of insts commited each cycle
system.cpu0.commit.committed_per_cycle::underflows            0      0.00%      0.00% # Number of insts commited each cycle
system.cpu0.commit.committed_per_cycle::0   1449926713     74.55%     74.55% # Number of insts commited each cycle
system.cpu0.commit.committed_per_cycle::1    292807898     15.06%     89.60% # Number of insts commited each cycle
system.cpu0.commit.committed_per_cycle::2     72468869      3.73%     93.33% # Number of insts commited each cycle
system.cpu0.commit.committed_per_cycle::3     62323267      3.20%     96.54% # Number of insts commited each cycle
system.cpu0.commit.committed_per_cycle::4     20091195      1.03%     97.57% # Number of insts commited each cycle
system.cpu0.commit.committed_per_cycle::5      5994157      0.31%     97.88% # Number of insts commited each cycle
system.cpu0.commit.committed_per_cycle::6      4116907      0.21%     98.09% # Number of insts commited each cycle
system.cpu0.commit.committed_per_cycle::7      4721209      0.24%     98.33% # Number of insts commited each cycle
system.cpu0.commit.committed_per_cycle::8     32467656      1.67%    100.00% # Number of insts commited each cycle
system.cpu0.commit.committed_per_cycle::overflows            0      0.00%    100.00% # Number of insts commited each cycle
system.cpu0.commit.committed_per_cycle::min_value            0                       # Number of insts commited each cycle
system.cpu0.commit.committed_per_cycle::max_value            8                       # Number of insts commited each cycle
system.cpu0.commit.committed_per_cycle::total   1944917871                       # Number of insts commited each cycle
system.cpu0.commit.fp_insts                        65                       # Number of committed floating point instructions.
system.cpu0.commit.function_calls            20857299                       # Number of function calls committed.
system.cpu0.commit.int_insts               1015920079                       # Number of committed integer instructions.
system.cpu0.commit.loads                    326216198                       # Number of loads committed
system.cpu0.commit.membars                    3625388                       # Number of memory barriers committed
system.cpu0.commit.op_class_0::No_OpClass      3625397      0.34%      0.34% # Class of committed instruction
system.cpu0.commit.op_class_0::IntAlu       583895173     55.47%     55.82% # Class of committed instruction
system.cpu0.commit.op_class_0::IntMult        8030383      0.76%     56.58% # Class of committed instruction
system.cpu0.commit.op_class_0::IntDiv         1811041      0.17%     56.75% # Class of committed instruction
system.cpu0.commit.op_class_0::FloatAdd             0      0.00%     56.75% # Class of committed instruction
system.cpu0.commit.op_class_0::FloatCmp             6      0.00%     56.75% # Class of committed instruction
system.cpu0.commit.op_class_0::FloatCvt            16      0.00%     56.75% # Class of committed instruction
system.cpu0.commit.op_class_0::FloatMult            0      0.00%     56.75% # Class of committed instruction
system.cpu0.commit.op_class_0::FloatMultAcc            0      0.00%     56.75% # Class of committed instruction
system.cpu0.commit.op_class_0::FloatDiv             2      0.00%     56.75% # Class of committed instruction
system.cpu0.commit.op_class_0::FloatMisc            6      0.00%     56.75% # Class of committed instruction
system.cpu0.commit.op_class_0::FloatSqrt            0      0.00%     56.75% # Class of committed instruction
system.cpu0.commit.op_class_0::SimdAdd              0      0.00%     56.75% # Class of committed instruction
system.cpu0.commit.op_class_0::SimdAddAcc            0      0.00%     56.75% # Class of committed instruction
system.cpu0.commit.op_class_0::SimdAlu              0      0.00%     56.75% # Class of committed instruction
system.cpu0.commit.op_class_0::SimdCmp              0      0.00%     56.75% # Class of committed instruction
system.cpu0.commit.op_class_0::SimdCvt              0      0.00%     56.75% # Class of committed instruction
system.cpu0.commit.op_class_0::SimdMisc             0      0.00%     56.75% # Class of committed instruction
system.cpu0.commit.op_class_0::SimdMult             0      0.00%     56.75% # Class of committed instruction
system.cpu0.commit.op_class_0::SimdMultAcc            0      0.00%     56.75% # Class of committed instruction
system.cpu0.commit.op_class_0::SimdShift            0      0.00%     56.75% # Class of committed instruction
system.cpu0.commit.op_class_0::SimdShiftAcc            0      0.00%     56.75% # Class of committed instruction
system.cpu0.commit.op_class_0::SimdDiv              0      0.00%     56.75% # Class of committed instruction
system.cpu0.commit.op_class_0::SimdSqrt             0      0.00%     56.75% # Class of committed instruction
system.cpu0.commit.op_class_0::SimdFloatAdd            0      0.00%     56.75% # Class of committed instruction
system.cpu0.commit.op_class_0::SimdFloatAlu            0      0.00%     56.75% # Class of committed instruction
system.cpu0.commit.op_class_0::SimdFloatCmp            0      0.00%     56.75% # Class of committed instruction
system.cpu0.commit.op_class_0::SimdFloatCvt            0      0.00%     56.75% # Class of committed instruction
system.cpu0.commit.op_class_0::SimdFloatDiv            0      0.00%     56.75% # Class of committed instruction
system.cpu0.commit.op_class_0::SimdFloatMisc            0      0.00%     56.75% # Class of committed instruction
system.cpu0.commit.op_class_0::SimdFloatMult            0      0.00%     56.75% # Class of committed instruction
system.cpu0.commit.op_class_0::SimdFloatMultAcc            0      0.00%     56.75% # Class of committed instruction
system.cpu0.commit.op_class_0::SimdFloatSqrt            0      0.00%     56.75% # Class of committed instruction
system.cpu0.commit.op_class_0::SimdReduceAdd            0      0.00%     56.75% # Class of committed instruction
system.cpu0.commit.op_class_0::SimdReduceAlu            0      0.00%     56.75% # Class of committed instruction
system.cpu0.commit.op_class_0::SimdReduceCmp            0      0.00%     56.75% # Class of committed instruction
system.cpu0.commit.op_class_0::SimdFloatReduceAdd            0      0.00%     56.75% # Class of committed instruction
system.cpu0.commit.op_class_0::SimdFloatReduceCmp            0      0.00%     56.75% # Class of committed instruction
system.cpu0.commit.op_class_0::SimdAes              0      0.00%     56.75% # Class of committed instruction
system.cpu0.commit.op_class_0::SimdAesMix            0      0.00%     56.75% # Class of committed instruction
system.cpu0.commit.op_class_0::SimdSha1Hash            0      0.00%     56.75% # Class of committed instruction
system.cpu0.commit.op_class_0::SimdSha1Hash2            0      0.00%     56.75% # Class of committed instruction
system.cpu0.commit.op_class_0::SimdSha256Hash            0      0.00%     56.75% # Class of committed instruction
system.cpu0.commit.op_class_0::SimdSha256Hash2            0      0.00%     56.75% # Class of committed instruction
system.cpu0.commit.op_class_0::SimdShaSigma2            0      0.00%     56.75% # Class of committed instruction
system.cpu0.commit.op_class_0::SimdShaSigma3            0      0.00%     56.75% # Class of committed instruction
system.cpu0.commit.op_class_0::SimdPredAlu            0      0.00%     56.75% # Class of committed instruction
system.cpu0.commit.op_class_0::MemRead      328027664     31.17%     87.92% # Class of committed instruction
system.cpu0.commit.op_class_0::MemWrite     127152432     12.08%    100.00% # Class of committed instruction
system.cpu0.commit.op_class_0::FloatMemRead           12      0.00%    100.00% # Class of committed instruction
system.cpu0.commit.op_class_0::FloatMemWrite           23      0.00%    100.00% # Class of committed instruction
system.cpu0.commit.op_class_0::IprAccess            0      0.00%    100.00% # Class of committed instruction
system.cpu0.commit.op_class_0::InstPrefetch            0      0.00%    100.00% # Class of committed instruction
system.cpu0.commit.op_class_0::total       1052542155                       # Class of committed instruction
system.cpu0.commit.refs                     455180131                       # Number of memory references committed
system.cpu0.commit.swp_count                        0                       # Number of s/w prefetches committed
system.cpu0.commit.vec_insts                        0                       # Number of committed Vector instructions.
system.cpu0.committedInsts                 1050728125                       # Number of Instructions Simulated
system.cpu0.committedOps                   1052542155                       # Number of Ops (including micro ops) Simulated
system.cpu0.cpi                              2.050883                       # CPI: Cycles Per Instruction
system.cpu0.cpi_total                        2.050883                       # CPI: Total CPI of All Threads
system.cpu0.decode.BlockedCycles            368357082                       # Number of cycles decode is blocked
system.cpu0.decode.BranchMispred              7996868                       # Number of times decode detected a branch misprediction
system.cpu0.decode.BranchResolved           143114622                       # Number of times decode resolved a branch
system.cpu0.decode.DecodedInsts            1176528221                       # Number of instructions handled by decode
system.cpu0.decode.IdleCycles               748271287                       # Number of cycles decode is idle
system.cpu0.decode.RunCycles                829962225                       # Number of cycles decode is running
system.cpu0.decode.SquashCycles              12305703                       # Number of cycles decode is squashing
system.cpu0.decode.SquashedInsts             16509586                       # Number of squashed instructions handled by decode
system.cpu0.decode.UnblockCycles              6769517                       # Number of cycles decode is unblocking
system.cpu0.dtb.accesses                            0                       # DTB accesses
system.cpu0.dtb.hits                                0                       # DTB hits
system.cpu0.dtb.misses                              0                       # DTB misses
system.cpu0.dtb.read_accesses                       0                       # DTB read accesses
system.cpu0.dtb.read_hits                           0                       # DTB read hits
system.cpu0.dtb.read_misses                         0                       # DTB read misses
system.cpu0.dtb.write_accesses                      0                       # DTB write accesses
system.cpu0.dtb.write_hits                          0                       # DTB write hits
system.cpu0.dtb.write_misses                        0                       # DTB write misses
system.cpu0.fetch.Branches                  285363026                       # Number of branches that fetch encountered
system.cpu0.fetch.CacheLines                211966280                       # Number of cache lines fetched
system.cpu0.fetch.Cycles                   1209149832                       # Number of cycles fetch has run and was not squashing or blocked
system.cpu0.fetch.IcacheSquashes              4692439                       # Number of outstanding Icache misses that were squashed
system.cpu0.fetch.IcacheWaitRetryStallCycles          186                       # Number of stall cycles due to full MSHR
system.cpu0.fetch.Insts                    1202794259                       # Number of instructions fetch has processed
system.cpu0.fetch.MiscStallCycles                 183                       # Number of cycles fetch has spent waiting on interrupts, or bad addresses, or out of MSHRs
system.cpu0.fetch.PendingTrapStallCycles          398                       # Number of stall cycles due to pending traps
system.cpu0.fetch.SquashCycles               40589820                       # Number of cycles fetch has spent squashing
system.cpu0.fetch.branchRate                 0.132424                       # Number of branch fetches per cycle
system.cpu0.fetch.icacheStallCycles         736220305                       # Number of cycles fetch is stalled on an Icache miss
system.cpu0.fetch.predictedBranches         164665361                       # Number of branches that fetch has predicted taken
system.cpu0.fetch.rate                       0.558162                       # Number of inst fetches per cycle
system.cpu0.fetch.rateDist::samples        1965665814                       # Number of instructions fetched each cycle (Total)
system.cpu0.fetch.rateDist::mean             0.612825                       # Number of instructions fetched each cycle (Total)
system.cpu0.fetch.rateDist::stdev            0.868564                       # Number of instructions fetched each cycle (Total)
system.cpu0.fetch.rateDist::underflows              0      0.00%      0.00% # Number of instructions fetched each cycle (Total)
system.cpu0.fetch.rateDist::0              1096017203     55.76%     55.76% # Number of instructions fetched each cycle (Total)
system.cpu0.fetch.rateDist::1               654085944     33.28%     89.03% # Number of instructions fetched each cycle (Total)
system.cpu0.fetch.rateDist::2               130369095      6.63%     95.67% # Number of instructions fetched each cycle (Total)
system.cpu0.fetch.rateDist::3                64189798      3.27%     98.93% # Number of instructions fetched each cycle (Total)
system.cpu0.fetch.rateDist::4                12146725      0.62%     99.55% # Number of instructions fetched each cycle (Total)
system.cpu0.fetch.rateDist::5                 6548440      0.33%     99.88% # Number of instructions fetched each cycle (Total)
system.cpu0.fetch.rateDist::6                  382433      0.02%     99.90% # Number of instructions fetched each cycle (Total)
system.cpu0.fetch.rateDist::7                 1816681      0.09%     99.99% # Number of instructions fetched each cycle (Total)
system.cpu0.fetch.rateDist::8                  109495      0.01%    100.00% # Number of instructions fetched each cycle (Total)
system.cpu0.fetch.rateDist::overflows               0      0.00%    100.00% # Number of instructions fetched each cycle (Total)
system.cpu0.fetch.rateDist::min_value               0                       # Number of instructions fetched each cycle (Total)
system.cpu0.fetch.rateDist::max_value               8                       # Number of instructions fetched each cycle (Total)
system.cpu0.fetch.rateDist::total          1965665814                       # Number of instructions fetched each cycle (Total)
system.cpu0.fp_regfile_reads                       56                       # number of floating regfile reads
system.cpu0.fp_regfile_writes                      33                       # number of floating regfile writes
system.cpu0.idleCycles                      189254834                       # Total number of cycles that the CPU has spent unscheduled due to idling
system.cpu0.iew.branchMispredicts            12395954                       # Number of branch mispredicts detected at execute
system.cpu0.iew.exec_branches               272655691                       # Number of branches executed
system.cpu0.iew.exec_nop                            0                       # number of nop insts executed
system.cpu0.iew.exec_rate                    0.526728                       # Inst execution rate
system.cpu0.iew.exec_refs                   506837447                       # number of memory reference insts executed
system.cpu0.iew.exec_stores                 139888049                       # Number of stores executed
system.cpu0.iew.exec_swp                            0                       # number of swp insts executed
system.cpu0.iew.iewBlockCycles              305178067                       # Number of cycles IEW is blocking
system.cpu0.iew.iewDispLoadInsts            368293977                       # Number of dispatched load instructions
system.cpu0.iew.iewDispNonSpecInsts           1816845                       # Number of dispatched non-speculative instructions
system.cpu0.iew.iewDispSquashedInsts          8716318                       # Number of squashed instructions skipped by dispatch
system.cpu0.iew.iewDispStoreInsts           141124993                       # Number of dispatched store instructions
system.cpu0.iew.iewDispatchedInsts         1147081574                       # Number of instructions dispatched to IQ
system.cpu0.iew.iewExecLoadInsts            366949398                       # Number of load instructions executed
system.cpu0.iew.iewExecSquashedInsts          4895974                       # Number of squashed instructions skipped in execute
system.cpu0.iew.iewExecutedInsts           1135057181                       # Number of executed instructions
system.cpu0.iew.iewIQFullEvents               1741344                       # Number of times the IQ has become full, causing a stall
system.cpu0.iew.iewIdleCycles                       0                       # Number of cycles IEW is idle
system.cpu0.iew.iewLSQFullEvents              4270251                       # Number of times the LSQ has become full, causing a stall
system.cpu0.iew.iewSquashCycles              12305703                       # Number of cycles IEW is squashing
system.cpu0.iew.iewUnblockCycles              8092713                       # Number of cycles IEW is unblocking
system.cpu0.iew.lsq.thread0.blockedLoads            0                       # Number of blocked loads due to partial load-store forwarding
system.cpu0.iew.lsq.thread0.cacheBlocked       112749                       # Number of times an access to memory failed due to the cache being blocked
system.cpu0.iew.lsq.thread0.forwLoads        21030650                       # Number of loads that had data forwarded from stores
system.cpu0.iew.lsq.thread0.ignoredResponses        43883                       # Number of memory responses ignored because the instruction is squashed
system.cpu0.iew.lsq.thread0.invAddrLoads            0                       # Number of loads ignored due to an invalid address
system.cpu0.iew.lsq.thread0.invAddrSwpfs            0                       # Number of software prefetches ignored due to an invalid address
system.cpu0.iew.lsq.thread0.memOrderViolation        14834                       # Number of memory ordering violations
system.cpu0.iew.lsq.thread0.rescheduledLoads      5844781                       # Number of loads that were rescheduled
system.cpu0.iew.lsq.thread0.squashedLoads     42077779                       # Number of loads squashed
system.cpu0.iew.lsq.thread0.squashedStores     12161060                       # Number of stores squashed
system.cpu0.iew.memOrderViolationEvents         14834                       # Number of memory order violations
system.cpu0.iew.predictedNotTakenIncorrect      1163278                       # Number of branches that were predicted not taken incorrectly
system.cpu0.iew.predictedTakenIncorrect      11232676                       # Number of branches that were predicted taken incorrectly
system.cpu0.iew.wb_consumers                480413567                       # num instructions consuming a value
system.cpu0.iew.wb_count                   1123530304                       # cumulative count of insts written-back
system.cpu0.iew.wb_fanout                    0.850989                       # average fanout of values written-back
system.cpu0.iew.wb_producers                408826639                       # num instructions producing a value
system.cpu0.iew.wb_rate                      0.521379                       # insts written-back per cycle
system.cpu0.iew.wb_sent                    1123615169                       # cumulative count of insts sent to commit
system.cpu0.int_regfile_reads              1384047850                       # number of integer regfile reads
system.cpu0.int_regfile_writes              719009179                       # number of integer regfile writes
system.cpu0.ipc                              0.487595                       # IPC: Instructions Per Cycle
system.cpu0.ipc_total                        0.487595                       # IPC: Total IPC of All Threads
system.cpu0.iq.FU_type_0::No_OpClass          3626961      0.32%      0.32% # Type of FU issued
system.cpu0.iq.FU_type_0::IntAlu            617451094     54.16%     54.48% # Type of FU issued
system.cpu0.iq.FU_type_0::IntMult             8036297      0.70%     55.19% # Type of FU issued
system.cpu0.iq.FU_type_0::IntDiv              1811566      0.16%     55.35% # Type of FU issued
system.cpu0.iq.FU_type_0::FloatAdd                  0      0.00%     55.35% # Type of FU issued
system.cpu0.iq.FU_type_0::FloatCmp                  6      0.00%     55.35% # Type of FU issued
system.cpu0.iq.FU_type_0::FloatCvt                 16      0.00%     55.35% # Type of FU issued
system.cpu0.iq.FU_type_0::FloatMult                 0      0.00%     55.35% # Type of FU issued
system.cpu0.iq.FU_type_0::FloatMultAcc              0      0.00%     55.35% # Type of FU issued
system.cpu0.iq.FU_type_0::FloatDiv                  2      0.00%     55.35% # Type of FU issued
system.cpu0.iq.FU_type_0::FloatMisc                 6      0.00%     55.35% # Type of FU issued
system.cpu0.iq.FU_type_0::FloatSqrt                 0      0.00%     55.35% # Type of FU issued
system.cpu0.iq.FU_type_0::SimdAdd                   0      0.00%     55.35% # Type of FU issued
system.cpu0.iq.FU_type_0::SimdAddAcc                0      0.00%     55.35% # Type of FU issued
system.cpu0.iq.FU_type_0::SimdAlu                   0      0.00%     55.35% # Type of FU issued
system.cpu0.iq.FU_type_0::SimdCmp                   0      0.00%     55.35% # Type of FU issued
system.cpu0.iq.FU_type_0::SimdCvt                   0      0.00%     55.35% # Type of FU issued
system.cpu0.iq.FU_type_0::SimdMisc                  0      0.00%     55.35% # Type of FU issued
system.cpu0.iq.FU_type_0::SimdMult                  0      0.00%     55.35% # Type of FU issued
system.cpu0.iq.FU_type_0::SimdMultAcc               0      0.00%     55.35% # Type of FU issued
system.cpu0.iq.FU_type_0::SimdShift                 0      0.00%     55.35% # Type of FU issued
system.cpu0.iq.FU_type_0::SimdShiftAcc              0      0.00%     55.35% # Type of FU issued
system.cpu0.iq.FU_type_0::SimdDiv                   0      0.00%     55.35% # Type of FU issued
system.cpu0.iq.FU_type_0::SimdSqrt                  0      0.00%     55.35% # Type of FU issued
system.cpu0.iq.FU_type_0::SimdFloatAdd              0      0.00%     55.35% # Type of FU issued
system.cpu0.iq.FU_type_0::SimdFloatAlu              0      0.00%     55.35% # Type of FU issued
system.cpu0.iq.FU_type_0::SimdFloatCmp              0      0.00%     55.35% # Type of FU issued
system.cpu0.iq.FU_type_0::SimdFloatCvt              0      0.00%     55.35% # Type of FU issued
system.cpu0.iq.FU_type_0::SimdFloatDiv              0      0.00%     55.35% # Type of FU issued
system.cpu0.iq.FU_type_0::SimdFloatMisc             0      0.00%     55.35% # Type of FU issued
system.cpu0.iq.FU_type_0::SimdFloatMult             0      0.00%     55.35% # Type of FU issued
system.cpu0.iq.FU_type_0::SimdFloatMultAcc            0      0.00%     55.35% # Type of FU issued
system.cpu0.iq.FU_type_0::SimdFloatSqrt             0      0.00%     55.35% # Type of FU issued
system.cpu0.iq.FU_type_0::SimdReduceAdd             0      0.00%     55.35% # Type of FU issued
system.cpu0.iq.FU_type_0::SimdReduceAlu             0      0.00%     55.35% # Type of FU issued
system.cpu0.iq.FU_type_0::SimdReduceCmp             0      0.00%     55.35% # Type of FU issued
system.cpu0.iq.FU_type_0::SimdFloatReduceAdd            0      0.00%     55.35% # Type of FU issued
system.cpu0.iq.FU_type_0::SimdFloatReduceCmp            0      0.00%     55.35% # Type of FU issued
system.cpu0.iq.FU_type_0::SimdAes                   0      0.00%     55.35% # Type of FU issued
system.cpu0.iq.FU_type_0::SimdAesMix                0      0.00%     55.35% # Type of FU issued
system.cpu0.iq.FU_type_0::SimdSha1Hash              0      0.00%     55.35% # Type of FU issued
system.cpu0.iq.FU_type_0::SimdSha1Hash2             0      0.00%     55.35% # Type of FU issued
system.cpu0.iq.FU_type_0::SimdSha256Hash            0      0.00%     55.35% # Type of FU issued
system.cpu0.iq.FU_type_0::SimdSha256Hash2            0      0.00%     55.35% # Type of FU issued
system.cpu0.iq.FU_type_0::SimdShaSigma2             0      0.00%     55.35% # Type of FU issued
system.cpu0.iq.FU_type_0::SimdShaSigma3             0      0.00%     55.35% # Type of FU issued
system.cpu0.iq.FU_type_0::SimdPredAlu               0      0.00%     55.35% # Type of FU issued
system.cpu0.iq.FU_type_0::MemRead           370573362     32.51%     87.85% # Type of FU issued
system.cpu0.iq.FU_type_0::MemWrite          138453801     12.15%    100.00% # Type of FU issued
system.cpu0.iq.FU_type_0::FloatMemRead             22      0.00%    100.00% # Type of FU issued
system.cpu0.iq.FU_type_0::FloatMemWrite            23      0.00%    100.00% # Type of FU issued
system.cpu0.iq.FU_type_0::IprAccess                 0      0.00%    100.00% # Type of FU issued
system.cpu0.iq.FU_type_0::InstPrefetch              0      0.00%    100.00% # Type of FU issued
system.cpu0.iq.FU_type_0::total            1139953156                       # Type of FU issued
system.cpu0.iq.fp_alu_accesses                     78                       # Number of floating point alu accesses
system.cpu0.iq.fp_inst_queue_reads                153                       # Number of floating instruction queue reads
system.cpu0.iq.fp_inst_queue_wakeup_accesses           67                       # Number of floating instruction queue wakeup accesses
system.cpu0.iq.fp_inst_queue_writes                89                       # Number of floating instruction queue writes
system.cpu0.iq.fu_busy_cnt                    2238914                       # FU busy when requested
system.cpu0.iq.fu_busy_rate                  0.001964                       # FU busy rate (busy events/executed inst)
system.cpu0.iq.fu_full::No_OpClass                  0      0.00%      0.00% # attempts to use FU when none available
system.cpu0.iq.fu_full::IntAlu                 405217     18.10%     18.10% # attempts to use FU when none available
system.cpu0.iq.fu_full::IntMult                     0      0.00%     18.10% # attempts to use FU when none available
system.cpu0.iq.fu_full::IntDiv                      0      0.00%     18.10% # attempts to use FU when none available
system.cpu0.iq.fu_full::FloatAdd                    0      0.00%     18.10% # attempts to use FU when none available
system.cpu0.iq.fu_full::FloatCmp                    0      0.00%     18.10% # attempts to use FU when none available
system.cpu0.iq.fu_full::FloatCvt                    0      0.00%     18.10% # attempts to use FU when none available
system.cpu0.iq.fu_full::FloatMult                   0      0.00%     18.10% # attempts to use FU when none available
system.cpu0.iq.fu_full::FloatMultAcc                0      0.00%     18.10% # attempts to use FU when none available
system.cpu0.iq.fu_full::FloatDiv                    0      0.00%     18.10% # attempts to use FU when none available
system.cpu0.iq.fu_full::FloatMisc                   0      0.00%     18.10% # attempts to use FU when none available
system.cpu0.iq.fu_full::FloatSqrt                   0      0.00%     18.10% # attempts to use FU when none available
system.cpu0.iq.fu_full::SimdAdd                     0      0.00%     18.10% # attempts to use FU when none available
system.cpu0.iq.fu_full::SimdAddAcc                  0      0.00%     18.10% # attempts to use FU when none available
system.cpu0.iq.fu_full::SimdAlu                     0      0.00%     18.10% # attempts to use FU when none available
system.cpu0.iq.fu_full::SimdCmp                     0      0.00%     18.10% # attempts to use FU when none available
system.cpu0.iq.fu_full::SimdCvt                     0      0.00%     18.10% # attempts to use FU when none available
system.cpu0.iq.fu_full::SimdMisc                    0      0.00%     18.10% # attempts to use FU when none available
system.cpu0.iq.fu_full::SimdMult                    0      0.00%     18.10% # attempts to use FU when none available
system.cpu0.iq.fu_full::SimdMultAcc                 0      0.00%     18.10% # attempts to use FU when none available
system.cpu0.iq.fu_full::SimdShift                   0      0.00%     18.10% # attempts to use FU when none available
system.cpu0.iq.fu_full::SimdShiftAcc                0      0.00%     18.10% # attempts to use FU when none available
system.cpu0.iq.fu_full::SimdDiv                     0      0.00%     18.10% # attempts to use FU when none available
system.cpu0.iq.fu_full::SimdSqrt                    0      0.00%     18.10% # attempts to use FU when none available
system.cpu0.iq.fu_full::SimdFloatAdd                0      0.00%     18.10% # attempts to use FU when none available
system.cpu0.iq.fu_full::SimdFloatAlu                0      0.00%     18.10% # attempts to use FU when none available
system.cpu0.iq.fu_full::SimdFloatCmp                0      0.00%     18.10% # attempts to use FU when none available
system.cpu0.iq.fu_full::SimdFloatCvt                0      0.00%     18.10% # attempts to use FU when none available
system.cpu0.iq.fu_full::SimdFloatDiv                0      0.00%     18.10% # attempts to use FU when none available
system.cpu0.iq.fu_full::SimdFloatMisc               0      0.00%     18.10% # attempts to use FU when none available
system.cpu0.iq.fu_full::SimdFloatMult               0      0.00%     18.10% # attempts to use FU when none available
system.cpu0.iq.fu_full::SimdFloatMultAcc            0      0.00%     18.10% # attempts to use FU when none available
system.cpu0.iq.fu_full::SimdFloatSqrt               0      0.00%     18.10% # attempts to use FU when none available
system.cpu0.iq.fu_full::SimdReduceAdd               0      0.00%     18.10% # attempts to use FU when none available
system.cpu0.iq.fu_full::SimdReduceAlu               0      0.00%     18.10% # attempts to use FU when none available
system.cpu0.iq.fu_full::SimdReduceCmp               0      0.00%     18.10% # attempts to use FU when none available
system.cpu0.iq.fu_full::SimdFloatReduceAdd            0      0.00%     18.10% # attempts to use FU when none available
system.cpu0.iq.fu_full::SimdFloatReduceCmp            0      0.00%     18.10% # attempts to use FU when none available
system.cpu0.iq.fu_full::SimdAes                     0      0.00%     18.10% # attempts to use FU when none available
system.cpu0.iq.fu_full::SimdAesMix                  0      0.00%     18.10% # attempts to use FU when none available
system.cpu0.iq.fu_full::SimdSha1Hash                0      0.00%     18.10% # attempts to use FU when none available
system.cpu0.iq.fu_full::SimdSha1Hash2               0      0.00%     18.10% # attempts to use FU when none available
system.cpu0.iq.fu_full::SimdSha256Hash              0      0.00%     18.10% # attempts to use FU when none available
system.cpu0.iq.fu_full::SimdSha256Hash2             0      0.00%     18.10% # attempts to use FU when none available
system.cpu0.iq.fu_full::SimdShaSigma2               0      0.00%     18.10% # attempts to use FU when none available
system.cpu0.iq.fu_full::SimdShaSigma3               0      0.00%     18.10% # attempts to use FU when none available
system.cpu0.iq.fu_full::SimdPredAlu                 0      0.00%     18.10% # attempts to use FU when none available
system.cpu0.iq.fu_full::MemRead               1602692     71.58%     89.68% # attempts to use FU when none available
system.cpu0.iq.fu_full::MemWrite               231002     10.32%    100.00% # attempts to use FU when none available
system.cpu0.iq.fu_full::FloatMemRead                0      0.00%    100.00% # attempts to use FU when none available
system.cpu0.iq.fu_full::FloatMemWrite               3      0.00%    100.00% # attempts to use FU when none available
system.cpu0.iq.fu_full::IprAccess                   0      0.00%    100.00% # attempts to use FU when none available
system.cpu0.iq.fu_full::InstPrefetch                0      0.00%    100.00% # attempts to use FU when none available
system.cpu0.iq.int_alu_accesses            1138565031                       # Number of integer alu accesses
system.cpu0.iq.int_inst_queue_reads        4247945146                       # Number of integer instruction queue reads
system.cpu0.iq.int_inst_queue_wakeup_accesses   1123530237                       # Number of integer instruction queue wakeup accesses
system.cpu0.iq.int_inst_queue_writes       1241634674                       # Number of integer instruction queue writes
system.cpu0.iq.iqInstsAdded                1141639088                       # Number of instructions added to the IQ (excludes non-spec)
system.cpu0.iq.iqInstsIssued               1139953156                       # Number of instructions issued
system.cpu0.iq.iqNonSpecInstsAdded            5442486                       # Number of non-speculative instructions added to the IQ
system.cpu0.iq.iqSquashedInstsExamined       94539415                       # Number of squashed instructions iterated over during squash; mainly for profiling
system.cpu0.iq.iqSquashedInstsIssued           134260                       # Number of squashed instructions issued
system.cpu0.iq.iqSquashedNonSpecRemoved           996                       # Number of squashed non-spec instructions that were removed
system.cpu0.iq.iqSquashedOperandsExamined     25444715                       # Number of squashed operands that are examined and possibly removed from graph
system.cpu0.iq.issued_per_cycle::samples   1965665814                       # Number of insts issued each cycle
system.cpu0.iq.issued_per_cycle::mean        0.579932                       # Number of insts issued each cycle
system.cpu0.iq.issued_per_cycle::stdev       0.800697                       # Number of insts issued each cycle
system.cpu0.iq.issued_per_cycle::underflows            0      0.00%      0.00% # Number of insts issued each cycle
system.cpu0.iq.issued_per_cycle::0         1128943992     57.43%     57.43% # Number of insts issued each cycle
system.cpu0.iq.issued_per_cycle::1          596117333     30.33%     87.76% # Number of insts issued each cycle
system.cpu0.iq.issued_per_cycle::2          194286372      9.88%     97.64% # Number of insts issued each cycle
system.cpu0.iq.issued_per_cycle::3           35930257      1.83%     99.47% # Number of insts issued each cycle
system.cpu0.iq.issued_per_cycle::4            6335611      0.32%     99.79% # Number of insts issued each cycle
system.cpu0.iq.issued_per_cycle::5            2759631      0.14%     99.93% # Number of insts issued each cycle
system.cpu0.iq.issued_per_cycle::6             865837      0.04%     99.98% # Number of insts issued each cycle
system.cpu0.iq.issued_per_cycle::7             277561      0.01%     99.99% # Number of insts issued each cycle
system.cpu0.iq.issued_per_cycle::8             149220      0.01%    100.00% # Number of insts issued each cycle
system.cpu0.iq.issued_per_cycle::overflows            0      0.00%    100.00% # Number of insts issued each cycle
system.cpu0.iq.issued_per_cycle::min_value            0                       # Number of insts issued each cycle
system.cpu0.iq.issued_per_cycle::max_value            8                       # Number of insts issued each cycle
system.cpu0.iq.issued_per_cycle::total     1965665814                       # Number of insts issued each cycle
system.cpu0.iq.rate                          0.529000                       # Inst issue rate
system.cpu0.iq.vec_alu_accesses                     0                       # Number of vector alu accesses
system.cpu0.iq.vec_inst_queue_reads                 0                       # Number of vector instruction queue reads
system.cpu0.iq.vec_inst_queue_wakeup_accesses            0                       # Number of vector instruction queue wakeup accesses
system.cpu0.iq.vec_inst_queue_writes                0                       # Number of vector instruction queue writes
system.cpu0.itb.accesses                            0                       # DTB accesses
system.cpu0.itb.hits                                0                       # DTB hits
system.cpu0.itb.misses                              0                       # DTB misses
system.cpu0.itb.read_accesses                       0                       # DTB read accesses
system.cpu0.itb.read_hits                           0                       # DTB read hits
system.cpu0.itb.read_misses                         0                       # DTB read misses
system.cpu0.itb.write_accesses                      0                       # DTB write accesses
system.cpu0.itb.write_hits                          0                       # DTB write hits
system.cpu0.itb.write_misses                        0                       # DTB write misses
system.cpu0.memDep0.conflictingLoads         16688973                       # Number of conflicting loads.
system.cpu0.memDep0.conflictingStores         2942115                       # Number of conflicting stores.
system.cpu0.memDep0.insertedLoads           368293977                       # Number of loads inserted to the mem dependence unit.
system.cpu0.memDep0.insertedStores          141124993                       # Number of stores inserted to the mem dependence unit.
system.cpu0.misc_regfile_reads                   1531                       # number of misc regfile reads
system.cpu0.misc_regfile_writes                    30                       # number of misc regfile writes
system.cpu0.numCycles                      2154920648                       # number of cpu cycles simulated
system.cpu0.numWorkItemsCompleted                   0                       # number of work items this cpu completed
system.cpu0.numWorkItemsStarted                     0                       # number of work items this cpu started
system.cpu0.quiesceCycles                     4539703                       # Total number of cycles that CPU has spent quiesced or waiting for an interrupt
system.cpu0.rename.BlockCycles              327185194                       # Number of cycles rename is blocking
system.cpu0.rename.CommittedMaps            670600303                       # Number of HB maps that are committed
system.cpu0.rename.IQFullEvents              12428303                       # Number of times rename has blocked due to IQ full
system.cpu0.rename.IdleCycles               765328963                       # Number of cycles rename is idle
system.cpu0.rename.LQFullEvents              13854239                       # Number of times rename has blocked due to LQ full
system.cpu0.rename.ROBFullEvents                61047                       # Number of times rename has blocked due to ROB full
system.cpu0.rename.RenameLookups           1422776879                       # Number of register rename lookups that rename has made
system.cpu0.rename.RenamedInsts            1166370731                       # Number of instructions processed by rename
system.cpu0.rename.RenamedOperands          752206622                       # Number of destination operands rename has renamed
system.cpu0.rename.RunCycles                818781080                       # Number of cycles rename is running
system.cpu0.rename.SQFullEvents              15180123                       # Number of times rename has blocked due to SQ full
system.cpu0.rename.SquashCycles              12305703                       # Number of cycles rename is squashing
system.cpu0.rename.UnblockCycles             41771358                       # Number of cycles rename is unblocking
system.cpu0.rename.UndoneMaps                81606314                       # Number of HB maps that are undone due to squashing
system.cpu0.rename.fp_rename_lookups               56                       # Number of floating rename lookups
system.cpu0.rename.int_rename_lookups      1422776823                       # Number of integer rename lookups
system.cpu0.rename.serializeStallCycles        293516                       # count of cycles rename stalled for serializing inst
system.cpu0.rename.serializingInsts              4783                       # count of serializing insts renamed
system.cpu0.rename.skidInsts                 26151191                       # count of insts added to the skid buffer
system.cpu0.rename.tempSerializingInsts          4784                       # count of temporary serializing insts renamed
system.cpu0.rob.rob_reads                  3059527688                       # The number of ROB reads
system.cpu0.rob.rob_writes                 2314964635                       # The number of ROB writes
system.cpu0.timesIdled                       21780670                       # Number of times that the entire CPU went into an idle state and unscheduled itself
system.cpu0.workload.numSyscalls                 1487                       # Number of system calls
system.cpu1.branchPred.BTBCorrect                   0                       # Number of correct BTB predictions (this stat may not work properly.
system.cpu1.branchPred.BTBHitPct            93.640272                       # BTB Hit Percentage
system.cpu1.branchPred.BTBHits                9241984                       # Number of BTB hits
system.cpu1.branchPred.BTBLookups             9869668                       # Number of BTB lookups
system.cpu1.branchPred.RASInCorrect                 0                       # Number of incorrect RAS predictions.
system.cpu1.branchPred.condIncorrect          1621558                       # Number of conditional branches incorrect
system.cpu1.branchPred.condPredicted         17811067                       # Number of conditional branches predicted
system.cpu1.branchPred.indirectHits            324540                       # Number of indirect target hits.
system.cpu1.branchPred.indirectLookups         599760                       # Number of indirect predictor lookups.
system.cpu1.branchPred.indirectMisses          275220                       # Number of indirect misses.
system.cpu1.branchPred.lookups               19571495                       # Number of BP lookups
system.cpu1.branchPred.usedRAS                      0                       # Number of times the RAS was used to get a target.
system.cpu1.branchPredindirectMispredicted         4980                       # Number of mispredicted indirect branches.
system.cpu1.commit.amos                       1811198                       # Number of atomic instructions committed
system.cpu1.commit.branchMispredicts           933764                       # The number of times a branch was mispredicted
system.cpu1.commit.branches                  12199683                       # Number of branches committed
system.cpu1.commit.bw_lim_events              1395627                       # number cycles where commit BW limit reached
system.cpu1.commit.commitNonSpecStalls        5434284                       # The number of times commit has been forced to stall to communicate backwards
system.cpu1.commit.commitSquashedInsts       19496539                       # The number of squashed insts skipped by commit
system.cpu1.commit.committedInsts            55062848                       # Number of instructions committed
system.cpu1.commit.committedOps              56874224                       # Number of ops (including micro ops) committed
system.cpu1.commit.committed_per_cycle::samples    354098643                       # Number of insts commited each cycle
system.cpu1.commit.committed_per_cycle::mean     0.160617                       # Number of insts commited each cycle
system.cpu1.commit.committed_per_cycle::stdev     0.804784                       # Number of insts commited each cycle
system.cpu1.commit.committed_per_cycle::underflows            0      0.00%      0.00% # Number of insts commited each cycle
system.cpu1.commit.committed_per_cycle::0    331290346     93.56%     93.56% # Number of insts commited each cycle
system.cpu1.commit.committed_per_cycle::1     11134820      3.14%     96.70% # Number of insts commited each cycle
system.cpu1.commit.committed_per_cycle::2      3528852      1.00%     97.70% # Number of insts commited each cycle
system.cpu1.commit.committed_per_cycle::3      3577848      1.01%     98.71% # Number of insts commited each cycle
system.cpu1.commit.committed_per_cycle::4       998720      0.28%     98.99% # Number of insts commited each cycle
system.cpu1.commit.committed_per_cycle::5       360469      0.10%     99.09% # Number of insts commited each cycle
system.cpu1.commit.committed_per_cycle::6      1697812      0.48%     99.57% # Number of insts commited each cycle
system.cpu1.commit.committed_per_cycle::7       114149      0.03%     99.61% # Number of insts commited each cycle
system.cpu1.commit.committed_per_cycle::8      1395627      0.39%    100.00% # Number of insts commited each cycle
system.cpu1.commit.committed_per_cycle::overflows            0      0.00%    100.00% # Number of insts commited each cycle
system.cpu1.commit.committed_per_cycle::min_value            0                       # Number of insts commited each cycle
system.cpu1.commit.committed_per_cycle::max_value            8                       # Number of insts commited each cycle
system.cpu1.commit.committed_per_cycle::total    354098643                       # Number of insts commited each cycle
system.cpu1.commit.fp_insts                        12                       # Number of committed floating point instructions.
system.cpu1.commit.function_calls              502026                       # Number of function calls committed.
system.cpu1.commit.int_insts                 52960326                       # Number of committed integer instructions.
system.cpu1.commit.loads                     16123667                       # Number of loads committed
system.cpu1.commit.membars                    3622521                       # Number of memory barriers committed
system.cpu1.commit.op_class_0::No_OpClass      3622521      6.37%      6.37% # Class of committed instruction
system.cpu1.commit.op_class_0::IntAlu        32001963     56.27%     62.64% # Class of committed instruction
system.cpu1.commit.op_class_0::IntMult             43      0.00%     62.64% # Class of committed instruction
system.cpu1.commit.op_class_0::IntDiv              86      0.00%     62.64% # Class of committed instruction
system.cpu1.commit.op_class_0::FloatAdd             0      0.00%     62.64% # Class of committed instruction
system.cpu1.commit.op_class_0::FloatCmp             0      0.00%     62.64% # Class of committed instruction
system.cpu1.commit.op_class_0::FloatCvt             0      0.00%     62.64% # Class of committed instruction
system.cpu1.commit.op_class_0::FloatMult            0      0.00%     62.64% # Class of committed instruction
system.cpu1.commit.op_class_0::FloatMultAcc            0      0.00%     62.64% # Class of committed instruction
system.cpu1.commit.op_class_0::FloatDiv             0      0.00%     62.64% # Class of committed instruction
system.cpu1.commit.op_class_0::FloatMisc            0      0.00%     62.64% # Class of committed instruction
system.cpu1.commit.op_class_0::FloatSqrt            0      0.00%     62.64% # Class of committed instruction
system.cpu1.commit.op_class_0::SimdAdd              0      0.00%     62.64% # Class of committed instruction
system.cpu1.commit.op_class_0::SimdAddAcc            0      0.00%     62.64% # Class of committed instruction
system.cpu1.commit.op_class_0::SimdAlu              0      0.00%     62.64% # Class of committed instruction
system.cpu1.commit.op_class_0::SimdCmp              0      0.00%     62.64% # Class of committed instruction
system.cpu1.commit.op_class_0::SimdCvt              0      0.00%     62.64% # Class of committed instruction
system.cpu1.commit.op_class_0::SimdMisc             0      0.00%     62.64% # Class of committed instruction
system.cpu1.commit.op_class_0::SimdMult             0      0.00%     62.64% # Class of committed instruction
system.cpu1.commit.op_class_0::SimdMultAcc            0      0.00%     62.64% # Class of committed instruction
system.cpu1.commit.op_class_0::SimdShift            0      0.00%     62.64% # Class of committed instruction
system.cpu1.commit.op_class_0::SimdShiftAcc            0      0.00%     62.64% # Class of committed instruction
system.cpu1.commit.op_class_0::SimdDiv              0      0.00%     62.64% # Class of committed instruction
system.cpu1.commit.op_class_0::SimdSqrt             0      0.00%     62.64% # Class of committed instruction
system.cpu1.commit.op_class_0::SimdFloatAdd            0      0.00%     62.64% # Class of committed instruction
system.cpu1.commit.op_class_0::SimdFloatAlu            0      0.00%     62.64% # Class of committed instruction
system.cpu1.commit.op_class_0::SimdFloatCmp            0      0.00%     62.64% # Class of committed instruction
system.cpu1.commit.op_class_0::SimdFloatCvt            0      0.00%     62.64% # Class of committed instruction
system.cpu1.commit.op_class_0::SimdFloatDiv            0      0.00%     62.64% # Class of committed instruction
system.cpu1.commit.op_class_0::SimdFloatMisc            0      0.00%     62.64% # Class of committed instruction
system.cpu1.commit.op_class_0::SimdFloatMult            0      0.00%     62.64% # Class of committed instruction
system.cpu1.commit.op_class_0::SimdFloatMultAcc            0      0.00%     62.64% # Class of committed instruction
system.cpu1.commit.op_class_0::SimdFloatSqrt            0      0.00%     62.64% # Class of committed instruction
system.cpu1.commit.op_class_0::SimdReduceAdd            0      0.00%     62.64% # Class of committed instruction
system.cpu1.commit.op_class_0::SimdReduceAlu            0      0.00%     62.64% # Class of committed instruction
system.cpu1.commit.op_class_0::SimdReduceCmp            0      0.00%     62.64% # Class of committed instruction
system.cpu1.commit.op_class_0::SimdFloatReduceAdd            0      0.00%     62.64% # Class of committed instruction
system.cpu1.commit.op_class_0::SimdFloatReduceCmp            0      0.00%     62.64% # Class of committed instruction
system.cpu1.commit.op_class_0::SimdAes              0      0.00%     62.64% # Class of committed instruction
system.cpu1.commit.op_class_0::SimdAesMix            0      0.00%     62.64% # Class of committed instruction
system.cpu1.commit.op_class_0::SimdSha1Hash            0      0.00%     62.64% # Class of committed instruction
system.cpu1.commit.op_class_0::SimdSha1Hash2            0      0.00%     62.64% # Class of committed instruction
system.cpu1.commit.op_class_0::SimdSha256Hash            0      0.00%     62.64% # Class of committed instruction
system.cpu1.commit.op_class_0::SimdSha256Hash2            0      0.00%     62.64% # Class of committed instruction
system.cpu1.commit.op_class_0::SimdShaSigma2            0      0.00%     62.64% # Class of committed instruction
system.cpu1.commit.op_class_0::SimdShaSigma3            0      0.00%     62.64% # Class of committed instruction
system.cpu1.commit.op_class_0::SimdPredAlu            0      0.00%     62.64% # Class of committed instruction
system.cpu1.commit.op_class_0::MemRead       17934865     31.53%     94.17% # Class of committed instruction
system.cpu1.commit.op_class_0::MemWrite       3314734      5.83%    100.00% # Class of committed instruction
system.cpu1.commit.op_class_0::FloatMemRead            0      0.00%    100.00% # Class of committed instruction
system.cpu1.commit.op_class_0::FloatMemWrite           12      0.00%    100.00% # Class of committed instruction
system.cpu1.commit.op_class_0::IprAccess            0      0.00%    100.00% # Class of committed instruction
system.cpu1.commit.op_class_0::InstPrefetch            0      0.00%    100.00% # Class of committed instruction
system.cpu1.commit.op_class_0::total         56874224                       # Class of committed instruction
system.cpu1.commit.refs                      21249611                       # Number of memory references committed
system.cpu1.commit.swp_count                        0                       # Number of s/w prefetches committed
system.cpu1.commit.vec_insts                        0                       # Number of committed Vector instructions.
system.cpu1.committedInsts                   55062848                       # Number of Instructions Simulated
system.cpu1.committedOps                     56874224                       # Number of Ops (including micro ops) Simulated
system.cpu1.cpi                              6.494223                       # CPI: Cycles Per Instruction
system.cpu1.cpi_total                        6.494223                       # CPI: Total CPI of All Threads
system.cpu1.decode.BlockedCycles            316362047                       # Number of cycles decode is blocked
system.cpu1.decode.BranchMispred               693701                       # Number of times decode detected a branch misprediction
system.cpu1.decode.BranchResolved             8367945                       # Number of times decode resolved a branch
system.cpu1.decode.DecodedInsts              81621332                       # Number of instructions handled by decode
system.cpu1.decode.IdleCycles                 9571312                       # Number of cycles decode is idle
system.cpu1.decode.RunCycles                 25954021                       # Number of cycles decode is running
system.cpu1.decode.SquashCycles                934400                       # Number of cycles decode is squashing
system.cpu1.decode.SquashedInsts              1057857                       # Number of squashed instructions handled by decode
system.cpu1.decode.UnblockCycles              4340856                       # Number of cycles decode is unblocking
system.cpu1.dtb.accesses                            0                       # DTB accesses
system.cpu1.dtb.hits                                0                       # DTB hits
system.cpu1.dtb.misses                              0                       # DTB misses
system.cpu1.dtb.read_accesses                       0                       # DTB read accesses
system.cpu1.dtb.read_hits                           0                       # DTB read hits
system.cpu1.dtb.read_misses                         0                       # DTB read misses
system.cpu1.dtb.write_accesses                      0                       # DTB write accesses
system.cpu1.dtb.write_hits                          0                       # DTB write hits
system.cpu1.dtb.write_misses                        0                       # DTB write misses
system.cpu1.fetch.Branches                   19571495                       # Number of branches that fetch encountered
system.cpu1.fetch.CacheLines                  9269153                       # Number of cache lines fetched
system.cpu1.fetch.Cycles                    344940518                       # Number of cycles fetch has run and was not squashing or blocked
system.cpu1.fetch.IcacheSquashes                82084                       # Number of outstanding Icache misses that were squashed
system.cpu1.fetch.IcacheWaitRetryStallCycles           39                       # Number of stall cycles due to full MSHR
system.cpu1.fetch.Insts                      93001148                       # Number of instructions fetch has processed
system.cpu1.fetch.MiscStallCycles                   3                       # Number of cycles fetch has spent waiting on interrupts, or bad addresses, or out of MSHRs
system.cpu1.fetch.SquashCycles                3244388                       # Number of cycles fetch has spent squashing
system.cpu1.fetch.branchRate                 0.054732                       # Number of branch fetches per cycle
system.cpu1.fetch.icacheStallCycles          10599882                       # Number of cycles fetch is stalled on an Icache miss
system.cpu1.fetch.predictedBranches           9566524                       # Number of branches that fetch has predicted taken
system.cpu1.fetch.rate                       0.260077                       # Number of inst fetches per cycle
system.cpu1.fetch.rateDist::samples         357162636                       # Number of instructions fetched each cycle (Total)
system.cpu1.fetch.rateDist::mean             0.270151                       # Number of instructions fetched each cycle (Total)
system.cpu1.fetch.rateDist::stdev            0.763787                       # Number of instructions fetched each cycle (Total)
system.cpu1.fetch.rateDist::underflows              0      0.00%      0.00% # Number of instructions fetched each cycle (Total)
system.cpu1.fetch.rateDist::0               302144426     84.60%     84.60% # Number of instructions fetched each cycle (Total)
system.cpu1.fetch.rateDist::1                30393766      8.51%     93.11% # Number of instructions fetched each cycle (Total)
system.cpu1.fetch.rateDist::2                14616820      4.09%     97.20% # Number of instructions fetched each cycle (Total)
system.cpu1.fetch.rateDist::3                 6053958      1.70%     98.89% # Number of instructions fetched each cycle (Total)
system.cpu1.fetch.rateDist::4                 1991302      0.56%     99.45% # Number of instructions fetched each cycle (Total)
system.cpu1.fetch.rateDist::5                 1048261      0.29%     99.74% # Number of instructions fetched each cycle (Total)
system.cpu1.fetch.rateDist::6                  910375      0.25%    100.00% # Number of instructions fetched each cycle (Total)
system.cpu1.fetch.rateDist::7                     125      0.00%    100.00% # Number of instructions fetched each cycle (Total)
system.cpu1.fetch.rateDist::8                    3603      0.00%    100.00% # Number of instructions fetched each cycle (Total)
system.cpu1.fetch.rateDist::overflows               0      0.00%    100.00% # Number of instructions fetched each cycle (Total)
system.cpu1.fetch.rateDist::min_value               0                       # Number of instructions fetched each cycle (Total)
system.cpu1.fetch.rateDist::max_value               8                       # Number of instructions fetched each cycle (Total)
system.cpu1.fetch.rateDist::total           357162636                       # Number of instructions fetched each cycle (Total)
system.cpu1.fp_regfile_reads                       12                       # number of floating regfile reads
system.cpu1.idleCycles                         427766                       # Total number of cycles that the CPU has spent unscheduled due to idling
system.cpu1.iew.branchMispredicts              999716                       # Number of branch mispredicts detected at execute
system.cpu1.iew.exec_branches                14553594                       # Number of branches executed
system.cpu1.iew.exec_nop                            0                       # number of nop insts executed
system.cpu1.iew.exec_rate                    0.179591                       # Inst execution rate
system.cpu1.iew.exec_refs                    22616846                       # number of memory reference insts executed
system.cpu1.iew.exec_stores                   5232470                       # Number of stores executed
system.cpu1.iew.exec_swp                            0                       # number of swp insts executed
system.cpu1.iew.iewBlockCycles              273038557                       # Number of cycles IEW is blocking
system.cpu1.iew.iewDispLoadInsts             21557348                       # Number of dispatched load instructions
system.cpu1.iew.iewDispNonSpecInsts           2538221                       # Number of dispatched non-speculative instructions
system.cpu1.iew.iewDispSquashedInsts          1290882                       # Number of squashed instructions skipped by dispatch
system.cpu1.iew.iewDispStoreInsts             6775785                       # Number of dispatched store instructions
system.cpu1.iew.iewDispatchedInsts           76361641                       # Number of instructions dispatched to IQ
system.cpu1.iew.iewExecLoadInsts             17384376                       # Number of load instructions executed
system.cpu1.iew.iewExecSquashedInsts           769887                       # Number of squashed instructions skipped in execute
system.cpu1.iew.iewExecutedInsts             64219931                       # Number of executed instructions
system.cpu1.iew.iewIQFullEvents               1772480                       # Number of times the IQ has become full, causing a stall
system.cpu1.iew.iewIdleCycles                       0                       # Number of cycles IEW is idle
system.cpu1.iew.iewLSQFullEvents              2654831                       # Number of times the LSQ has become full, causing a stall
system.cpu1.iew.iewSquashCycles                934400                       # Number of cycles IEW is squashing
system.cpu1.iew.iewUnblockCycles              6498997                       # Number of cycles IEW is unblocking
system.cpu1.iew.lsq.thread0.blockedLoads            0                       # Number of blocked loads due to partial load-store forwarding
system.cpu1.iew.lsq.thread0.cacheBlocked        22874                       # Number of times an access to memory failed due to the cache being blocked
system.cpu1.iew.lsq.thread0.forwLoads          369622                       # Number of loads that had data forwarded from stores
system.cpu1.iew.lsq.thread0.ignoredResponses        10209                       # Number of memory responses ignored because the instruction is squashed
system.cpu1.iew.lsq.thread0.invAddrLoads            0                       # Number of loads ignored due to an invalid address
system.cpu1.iew.lsq.thread0.invAddrSwpfs            0                       # Number of software prefetches ignored due to an invalid address
system.cpu1.iew.lsq.thread0.memOrderViolation          695                       # Number of memory ordering violations
system.cpu1.iew.lsq.thread0.rescheduledLoads         3503                       # Number of loads that were rescheduled
system.cpu1.iew.lsq.thread0.squashedLoads      5433681                       # Number of loads squashed
system.cpu1.iew.lsq.thread0.squashedStores      1649841                       # Number of stores squashed
system.cpu1.iew.memOrderViolationEvents           695                       # Number of memory order violations
system.cpu1.iew.predictedNotTakenIncorrect       209094                       # Number of branches that were predicted not taken incorrectly
system.cpu1.iew.predictedTakenIncorrect        790622                       # Number of branches that were predicted taken incorrectly
system.cpu1.iew.wb_consumers                 37452163                       # num instructions consuming a value
system.cpu1.iew.wb_count                     63779051                       # cumulative count of insts written-back
system.cpu1.iew.wb_fanout                    0.847380                       # average fanout of values written-back
system.cpu1.iew.wb_producers                 31736232                       # num instructions producing a value
system.cpu1.iew.wb_rate                      0.178358                       # insts written-back per cycle
system.cpu1.iew.wb_sent                      63799943                       # cumulative count of insts sent to commit
system.cpu1.int_regfile_reads                80093159                       # number of integer regfile reads
system.cpu1.int_regfile_writes               42486148                       # number of integer regfile writes
system.cpu1.ipc                              0.153983                       # IPC: Instructions Per Cycle
system.cpu1.ipc_total                        0.153983                       # IPC: Total IPC of All Threads
system.cpu1.iq.FU_type_0::No_OpClass          3622641      5.57%      5.57% # Type of FU issued
system.cpu1.iq.FU_type_0::IntAlu             38599271     59.39%     64.97% # Type of FU issued
system.cpu1.iq.FU_type_0::IntMult                  46      0.00%     64.97% # Type of FU issued
system.cpu1.iq.FU_type_0::IntDiv                   88      0.00%     64.97% # Type of FU issued
system.cpu1.iq.FU_type_0::FloatAdd                  0      0.00%     64.97% # Type of FU issued
system.cpu1.iq.FU_type_0::FloatCmp                  0      0.00%     64.97% # Type of FU issued
system.cpu1.iq.FU_type_0::FloatCvt                  0      0.00%     64.97% # Type of FU issued
system.cpu1.iq.FU_type_0::FloatMult                 0      0.00%     64.97% # Type of FU issued
system.cpu1.iq.FU_type_0::FloatMultAcc              0      0.00%     64.97% # Type of FU issued
system.cpu1.iq.FU_type_0::FloatDiv                  0      0.00%     64.97% # Type of FU issued
system.cpu1.iq.FU_type_0::FloatMisc                 0      0.00%     64.97% # Type of FU issued
system.cpu1.iq.FU_type_0::FloatSqrt                 0      0.00%     64.97% # Type of FU issued
system.cpu1.iq.FU_type_0::SimdAdd                   0      0.00%     64.97% # Type of FU issued
system.cpu1.iq.FU_type_0::SimdAddAcc                0      0.00%     64.97% # Type of FU issued
system.cpu1.iq.FU_type_0::SimdAlu                   0      0.00%     64.97% # Type of FU issued
system.cpu1.iq.FU_type_0::SimdCmp                   0      0.00%     64.97% # Type of FU issued
system.cpu1.iq.FU_type_0::SimdCvt                   0      0.00%     64.97% # Type of FU issued
system.cpu1.iq.FU_type_0::SimdMisc                  0      0.00%     64.97% # Type of FU issued
system.cpu1.iq.FU_type_0::SimdMult                  0      0.00%     64.97% # Type of FU issued
system.cpu1.iq.FU_type_0::SimdMultAcc               0      0.00%     64.97% # Type of FU issued
system.cpu1.iq.FU_type_0::SimdShift                 0      0.00%     64.97% # Type of FU issued
system.cpu1.iq.FU_type_0::SimdShiftAcc              0      0.00%     64.97% # Type of FU issued
system.cpu1.iq.FU_type_0::SimdDiv                   0      0.00%     64.97% # Type of FU issued
system.cpu1.iq.FU_type_0::SimdSqrt                  0      0.00%     64.97% # Type of FU issued
system.cpu1.iq.FU_type_0::SimdFloatAdd              0      0.00%     64.97% # Type of FU issued
system.cpu1.iq.FU_type_0::SimdFloatAlu              0      0.00%     64.97% # Type of FU issued
system.cpu1.iq.FU_type_0::SimdFloatCmp              0      0.00%     64.97% # Type of FU issued
system.cpu1.iq.FU_type_0::SimdFloatCvt              0      0.00%     64.97% # Type of FU issued
system.cpu1.iq.FU_type_0::SimdFloatDiv              0      0.00%     64.97% # Type of FU issued
system.cpu1.iq.FU_type_0::SimdFloatMisc             0      0.00%     64.97% # Type of FU issued
system.cpu1.iq.FU_type_0::SimdFloatMult             0      0.00%     64.97% # Type of FU issued
system.cpu1.iq.FU_type_0::SimdFloatMultAcc            0      0.00%     64.97% # Type of FU issued
system.cpu1.iq.FU_type_0::SimdFloatSqrt             0      0.00%     64.97% # Type of FU issued
system.cpu1.iq.FU_type_0::SimdReduceAdd             0      0.00%     64.97% # Type of FU issued
system.cpu1.iq.FU_type_0::SimdReduceAlu             0      0.00%     64.97% # Type of FU issued
system.cpu1.iq.FU_type_0::SimdReduceCmp             0      0.00%     64.97% # Type of FU issued
system.cpu1.iq.FU_type_0::SimdFloatReduceAdd            0      0.00%     64.97% # Type of FU issued
system.cpu1.iq.FU_type_0::SimdFloatReduceCmp            0      0.00%     64.97% # Type of FU issued
system.cpu1.iq.FU_type_0::SimdAes                   0      0.00%     64.97% # Type of FU issued
system.cpu1.iq.FU_type_0::SimdAesMix                0      0.00%     64.97% # Type of FU issued
system.cpu1.iq.FU_type_0::SimdSha1Hash              0      0.00%     64.97% # Type of FU issued
system.cpu1.iq.FU_type_0::SimdSha1Hash2             0      0.00%     64.97% # Type of FU issued
system.cpu1.iq.FU_type_0::SimdSha256Hash            0      0.00%     64.97% # Type of FU issued
system.cpu1.iq.FU_type_0::SimdSha256Hash2            0      0.00%     64.97% # Type of FU issued
system.cpu1.iq.FU_type_0::SimdShaSigma2             0      0.00%     64.97% # Type of FU issued
system.cpu1.iq.FU_type_0::SimdShaSigma3             0      0.00%     64.97% # Type of FU issued
system.cpu1.iq.FU_type_0::SimdPredAlu               0      0.00%     64.97% # Type of FU issued
system.cpu1.iq.FU_type_0::MemRead            19332540     29.75%     94.71% # Type of FU issued
system.cpu1.iq.FU_type_0::MemWrite            3435220      5.29%    100.00% # Type of FU issued
system.cpu1.iq.FU_type_0::FloatMemRead              0      0.00%    100.00% # Type of FU issued
system.cpu1.iq.FU_type_0::FloatMemWrite            12      0.00%    100.00% # Type of FU issued
system.cpu1.iq.FU_type_0::IprAccess                 0      0.00%    100.00% # Type of FU issued
system.cpu1.iq.FU_type_0::InstPrefetch              0      0.00%    100.00% # Type of FU issued
system.cpu1.iq.FU_type_0::total              64989818                       # Type of FU issued
system.cpu1.iq.fp_alu_accesses                     15                       # Number of floating point alu accesses
system.cpu1.iq.fp_inst_queue_reads                 27                       # Number of floating instruction queue reads
system.cpu1.iq.fp_inst_queue_wakeup_accesses           12                       # Number of floating instruction queue wakeup accesses
system.cpu1.iq.fp_inst_queue_writes                12                       # Number of floating instruction queue writes
system.cpu1.iq.fu_busy_cnt                    1963223                       # FU busy when requested
system.cpu1.iq.fu_busy_rate                  0.030208                       # FU busy rate (busy events/executed inst)
system.cpu1.iq.fu_full::No_OpClass                  0      0.00%      0.00% # attempts to use FU when none available
system.cpu1.iq.fu_full::IntAlu                 345081     17.58%     17.58% # attempts to use FU when none available
system.cpu1.iq.fu_full::IntMult                     0      0.00%     17.58% # attempts to use FU when none available
system.cpu1.iq.fu_full::IntDiv                      0      0.00%     17.58% # attempts to use FU when none available
system.cpu1.iq.fu_full::FloatAdd                    0      0.00%     17.58% # attempts to use FU when none available
system.cpu1.iq.fu_full::FloatCmp                    0      0.00%     17.58% # attempts to use FU when none available
system.cpu1.iq.fu_full::FloatCvt                    0      0.00%     17.58% # attempts to use FU when none available
system.cpu1.iq.fu_full::FloatMult                   0      0.00%     17.58% # attempts to use FU when none available
system.cpu1.iq.fu_full::FloatMultAcc                0      0.00%     17.58% # attempts to use FU when none available
system.cpu1.iq.fu_full::FloatDiv                    0      0.00%     17.58% # attempts to use FU when none available
system.cpu1.iq.fu_full::FloatMisc                   0      0.00%     17.58% # attempts to use FU when none available
system.cpu1.iq.fu_full::FloatSqrt                   0      0.00%     17.58% # attempts to use FU when none available
system.cpu1.iq.fu_full::SimdAdd                     0      0.00%     17.58% # attempts to use FU when none available
system.cpu1.iq.fu_full::SimdAddAcc                  0      0.00%     17.58% # attempts to use FU when none available
system.cpu1.iq.fu_full::SimdAlu                     0      0.00%     17.58% # attempts to use FU when none available
system.cpu1.iq.fu_full::SimdCmp                     0      0.00%     17.58% # attempts to use FU when none available
system.cpu1.iq.fu_full::SimdCvt                     0      0.00%     17.58% # attempts to use FU when none available
system.cpu1.iq.fu_full::SimdMisc                    0      0.00%     17.58% # attempts to use FU when none available
system.cpu1.iq.fu_full::SimdMult                    0      0.00%     17.58% # attempts to use FU when none available
system.cpu1.iq.fu_full::SimdMultAcc                 0      0.00%     17.58% # attempts to use FU when none available
system.cpu1.iq.fu_full::SimdShift                   0      0.00%     17.58% # attempts to use FU when none available
system.cpu1.iq.fu_full::SimdShiftAcc                0      0.00%     17.58% # attempts to use FU when none available
system.cpu1.iq.fu_full::SimdDiv                     0      0.00%     17.58% # attempts to use FU when none available
system.cpu1.iq.fu_full::SimdSqrt                    0      0.00%     17.58% # attempts to use FU when none available
system.cpu1.iq.fu_full::SimdFloatAdd                0      0.00%     17.58% # attempts to use FU when none available
system.cpu1.iq.fu_full::SimdFloatAlu                0      0.00%     17.58% # attempts to use FU when none available
system.cpu1.iq.fu_full::SimdFloatCmp                0      0.00%     17.58% # attempts to use FU when none available
system.cpu1.iq.fu_full::SimdFloatCvt                0      0.00%     17.58% # attempts to use FU when none available
system.cpu1.iq.fu_full::SimdFloatDiv                0      0.00%     17.58% # attempts to use FU when none available
system.cpu1.iq.fu_full::SimdFloatMisc               0      0.00%     17.58% # attempts to use FU when none available
system.cpu1.iq.fu_full::SimdFloatMult               0      0.00%     17.58% # attempts to use FU when none available
system.cpu1.iq.fu_full::SimdFloatMultAcc            0      0.00%     17.58% # attempts to use FU when none available
system.cpu1.iq.fu_full::SimdFloatSqrt               0      0.00%     17.58% # attempts to use FU when none available
system.cpu1.iq.fu_full::SimdReduceAdd               0      0.00%     17.58% # attempts to use FU when none available
system.cpu1.iq.fu_full::SimdReduceAlu               0      0.00%     17.58% # attempts to use FU when none available
system.cpu1.iq.fu_full::SimdReduceCmp               0      0.00%     17.58% # attempts to use FU when none available
system.cpu1.iq.fu_full::SimdFloatReduceAdd            0      0.00%     17.58% # attempts to use FU when none available
system.cpu1.iq.fu_full::SimdFloatReduceCmp            0      0.00%     17.58% # attempts to use FU when none available
system.cpu1.iq.fu_full::SimdAes                     0      0.00%     17.58% # attempts to use FU when none available
system.cpu1.iq.fu_full::SimdAesMix                  0      0.00%     17.58% # attempts to use FU when none available
system.cpu1.iq.fu_full::SimdSha1Hash                0      0.00%     17.58% # attempts to use FU when none available
system.cpu1.iq.fu_full::SimdSha1Hash2               0      0.00%     17.58% # attempts to use FU when none available
system.cpu1.iq.fu_full::SimdSha256Hash              0      0.00%     17.58% # attempts to use FU when none available
system.cpu1.iq.fu_full::SimdSha256Hash2             0      0.00%     17.58% # attempts to use FU when none available
system.cpu1.iq.fu_full::SimdShaSigma2               0      0.00%     17.58% # attempts to use FU when none available
system.cpu1.iq.fu_full::SimdShaSigma3               0      0.00%     17.58% # attempts to use FU when none available
system.cpu1.iq.fu_full::SimdPredAlu                 0      0.00%     17.58% # attempts to use FU when none available
system.cpu1.iq.fu_full::MemRead               1448674     73.79%     91.37% # attempts to use FU when none available
[...]
system.cpu1.dcache.WriteReq_hits::.cpu1.data     18699626                       # number of WriteReq hits
system.cpu1.dcache.WriteReq_hits::total      18699626                       # number of WriteReq hits
system.cpu1.dcache.WriteReq_misses::.cpu1.data      7093424                       # number of WriteReq misses
system.cpu1.dcache.WriteReq_misses::total      7093424                       # number of WriteReq misses
system.cpu1.dcache.WriteReq_miss_latency::.cpu1.data 450975494947                       # number of WriteReq miss cycles
system.cpu1.dcache.WriteReq_miss_latency::total 450975494947                       # number of WriteReq miss cycles
system.cpu1.dcache.WriteReq_accesses::.cpu1.data     25793050                       # number of WriteReq accesses(hits+misses)
system.cpu1.dcache.WriteReq_accesses::total     25793050                       # number of WriteReq accesses(hits+misses)
system.cpu1.dcache.WriteReq_miss_rate::.cpu1.data     0.275013                       # miss rate for WriteReq accesses
system.cpu1.dcache.WriteReq_miss_rate::total     0.275013                       # miss rate for WriteReq accesses
system.cpu1.dcache.WriteReq_avg_miss_latency::.cpu1.data 63576.559775                       # average WriteReq miss latency
system.cpu1.dcache.WriteReq_avg_miss_latency::total 63576.559775                       # average WriteReq miss latency
system.cpu1.dcache.WriteReq_mshr_hits::.cpu1.data      5503607                       # number of WriteReq MSHR hits
system.cpu1.dcache.WriteReq_mshr_hits::total      5503607                       # number of WriteReq MSHR hits
system.cpu1.dcache.WriteReq_mshr_misses::.cpu1.data      1589817                       # number of WriteReq MSHR misses
system.cpu1.dcache.WriteReq_mshr_misses::total      1589817                       # number of WriteReq MSHR misses
system.cpu1.dcache.WriteReq_mshr_miss_latency::.cpu1.data 105905311435                       # number of WriteReq MSHR miss cycles
system.cpu1.dcache.WriteReq_mshr_miss_latency::total 105905311435                       # number of WriteReq MSHR miss cycles
system.cpu1.dcache.WriteReq_mshr_miss_rate::.cpu1.data     0.061637                       # mshr miss rate for WriteReq accesses
system.cpu1.dcache.WriteReq_mshr_miss_rate::total     0.061637                       # mshr miss rate for WriteReq accesses
system.cpu1.dcache.WriteReq_avg_mshr_miss_latency::.cpu1.data 66614.781094                       # average WriteReq mshr miss latency
system.cpu1.dcache.WriteReq_avg_mshr_miss_latency::total 66614.781094                       # average WriteReq mshr miss latency
system.cpu1.dcache.LoadLockedReq_hits::.cpu1.data         6767                       # number of LoadLockedReq hits
system.cpu1.dcache.LoadLockedReq_hits::total         6767                       # number of LoadLockedReq hits
system.cpu1.dcache.LoadLockedReq_misses::.cpu1.data         1582                       # number of LoadLockedReq misses
system.cpu1.dcache.LoadLockedReq_misses::total         1582                       # number of LoadLockedReq misses
system.cpu1.dcache.LoadLockedReq_miss_latency::.cpu1.data     76121000                       # number of LoadLockedReq miss cycles
system.cpu1.dcache.LoadLockedReq_miss_latency::total     76121000                       # number of LoadLockedReq miss cycles
system.cpu1.dcache.LoadLockedReq_accesses::.cpu1.data         8349                       # number of LoadLockedReq accesses(hits+misses)
system.cpu1.dcache.LoadLockedReq_accesses::total         8349                       # number of LoadLockedReq accesses(hits+misses)
system.cpu1.dcache.LoadLockedReq_miss_rate::.cpu1.data     0.189484                       # miss rate for LoadLockedReq accesses
system.cpu1.dcache.LoadLockedReq_miss_rate::total     0.189484                       # miss rate for LoadLockedReq accesses
system.cpu1.dcache.LoadLockedReq_avg_miss_latency::.cpu1.data 48116.940582                       # average LoadLockedReq miss latency
system.cpu1.dcache.LoadLockedReq_avg_miss_latency::total 48116.940582                       # average LoadLockedReq miss latency
system.cpu1.dcache.LoadLockedReq_mshr_hits::.cpu1.data         1402                       # number of LoadLockedReq MSHR hits
system.cpu1.dcache.LoadLockedReq_mshr_hits::total         1402                       # number of LoadLockedReq MSHR hits
system.cpu1.dcache.LoadLockedReq_mshr_misses::.cpu1.data          180                       # number of LoadLockedReq MSHR misses
system.cpu1.dcache.LoadLockedReq_mshr_misses::total          180                       # number of LoadLockedReq MSHR misses
system.cpu1.dcache.LoadLockedReq_mshr_miss_latency::.cpu1.data      2293000                       # number of LoadLockedReq MSHR miss cycles
system.cpu1.dcache.LoadLockedReq_mshr_miss_latency::total      2293000                       # number of LoadLockedReq MSHR miss cycles
system.cpu1.dcache.LoadLockedReq_mshr_miss_rate::.cpu1.data     0.021559                       # mshr miss rate for LoadLockedReq accesses
system.cpu1.dcache.LoadLockedReq_mshr_miss_rate::total     0.021559                       # mshr miss rate for LoadLockedReq accesses
system.cpu1.dcache.LoadLockedReq_avg_mshr_miss_latency::.cpu1.data 12738.888889                       # average LoadLockedReq mshr miss latency
system.cpu1.dcache.LoadLockedReq_avg_mshr_miss_latency::total 12738.888889                       # average LoadLockedReq mshr miss latency
system.cpu1.dcache.StoreCondReq_hits::.cpu1.data         4430                       # number of StoreCondReq hits
system.cpu1.dcache.StoreCondReq_hits::total         4430                       # number of StoreCondReq hits
system.cpu1.dcache.StoreCondReq_misses::.cpu1.data         2832                       # number of StoreCondReq misses
system.cpu1.dcache.StoreCondReq_misses::total         2832                       # number of StoreCondReq misses
system.cpu1.dcache.StoreCondReq_miss_latency::.cpu1.data     15621000                       # number of StoreCondReq miss cycles
system.cpu1.dcache.StoreCondReq_miss_latency::total     15621000                       # number of StoreCondReq miss cycles
system.cpu1.dcache.StoreCondReq_accesses::.cpu1.data         7262                       # number of StoreCondReq accesses(hits+misses)
system.cpu1.dcache.StoreCondReq_accesses::total         7262                       # number of StoreCondReq accesses(hits+misses)
system.cpu1.dcache.StoreCondReq_miss_rate::.cpu1.data     0.389975                       # miss rate for StoreCondReq accesses
system.cpu1.dcache.StoreCondReq_miss_rate::total     0.389975                       # miss rate for StoreCondReq accesses
system.cpu1.dcache.StoreCondReq_avg_miss_latency::.cpu1.data  5515.889831                       # average StoreCondReq miss latency
system.cpu1.dcache.StoreCondReq_avg_miss_latency::total  5515.889831                       # average StoreCondReq miss latency
system.cpu1.dcache.StoreCondReq_mshr_misses::.cpu1.data         2827                       # number of StoreCondReq MSHR misses
system.cpu1.dcache.StoreCondReq_mshr_misses::total         2827                       # number of StoreCondReq MSHR misses
system.cpu1.dcache.StoreCondReq_mshr_miss_latency::.cpu1.data     12795000                       # number of StoreCondReq MSHR miss cycles
system.cpu1.dcache.StoreCondReq_mshr_miss_latency::total     12795000                       # number of StoreCondReq MSHR miss cycles
system.cpu1.dcache.StoreCondReq_mshr_miss_rate::.cpu1.data     0.389287                       # mshr miss rate for StoreCondReq accesses
system.cpu1.dcache.StoreCondReq_mshr_miss_rate::total     0.389287                       # mshr miss rate for StoreCondReq accesses
system.cpu1.dcache.StoreCondReq_avg_mshr_miss_latency::.cpu1.data  4525.999293                       # average StoreCondReq mshr miss latency
system.cpu1.dcache.StoreCondReq_avg_mshr_miss_latency::total  4525.999293                       # average StoreCondReq mshr miss latency
system.cpu1.dcache.StoreCondFailReq_miss_latency::.cpu1.data        34000                       # number of StoreCondFailReq miss cycles
system.cpu1.dcache.StoreCondFailReq_miss_latency::total        34000                       # number of StoreCondFailReq miss cycles
system.cpu1.dcache.StoreCondFailReq_avg_miss_latency::.cpu1.data          inf                       # average StoreCondFailReq miss latency
system.cpu1.dcache.StoreCondFailReq_avg_miss_latency::total          inf                       # average StoreCondFailReq miss latency
system.cpu1.dcache.StoreCondFailReq_mshr_miss_latency::.cpu1.data        33000                       # number of StoreCondFailReq MSHR miss cycles
system.cpu1.dcache.StoreCondFailReq_mshr_miss_latency::total        33000                       # number of StoreCondFailReq MSHR miss cycles
system.cpu1.dcache.StoreCondFailReq_avg_mshr_miss_latency::.cpu1.data          inf                       # average StoreCondFailReq mshr miss latency
system.cpu1.dcache.StoreCondFailReq_avg_mshr_miss_latency::total          inf                       # average StoreCondFailReq mshr miss latency
system.cpu1.dcache.SwapReq_hits::.cpu1.data         3850                       # number of SwapReq hits
system.cpu1.dcache.SwapReq_hits::total           3850                       # number of SwapReq hits
system.cpu1.dcache.SwapReq_misses::.cpu1.data       194593                       # number of SwapReq misses
system.cpu1.dcache.SwapReq_misses::total       194593                       # number of SwapReq misses
system.cpu1.dcache.SwapReq_miss_latency::.cpu1.data   4855160500                       # number of SwapReq miss cycles
system.cpu1.dcache.SwapReq_miss_latency::total   4855160500                       # number of SwapReq miss cycles
system.cpu1.dcache.SwapReq_accesses::.cpu1.data       198443                       # number of SwapReq accesses(hits+misses)
system.cpu1.dcache.SwapReq_accesses::total       198443                       # number of SwapReq accesses(hits+misses)
system.cpu1.dcache.SwapReq_miss_rate::.cpu1.data     0.980599                       # miss rate for SwapReq accesses
system.cpu1.dcache.SwapReq_miss_rate::total     0.980599                       # miss rate for SwapReq accesses
system.cpu1.dcache.SwapReq_avg_miss_latency::.cpu1.data 24950.334801                       # average SwapReq miss latency
system.cpu1.dcache.SwapReq_avg_miss_latency::total 24950.334801                       # average SwapReq miss latency
system.cpu1.dcache.SwapReq_mshr_misses::.cpu1.data       194593                       # number of SwapReq MSHR misses
system.cpu1.dcache.SwapReq_mshr_misses::total       194593                       # number of SwapReq MSHR misses
system.cpu1.dcache.SwapReq_mshr_miss_latency::.cpu1.data   4660567500                       # number of SwapReq MSHR miss cycles
system.cpu1.dcache.SwapReq_mshr_miss_latency::total   4660567500                       # number of SwapReq MSHR miss cycles
system.cpu1.dcache.SwapReq_mshr_miss_rate::.cpu1.data     0.980599                       # mshr miss rate for SwapReq accesses
system.cpu1.dcache.SwapReq_mshr_miss_rate::total     0.980599                       # mshr miss rate for SwapReq accesses
system.cpu1.dcache.SwapReq_avg_mshr_miss_latency::.cpu1.data 23950.334801                       # average SwapReq mshr miss latency
system.cpu1.dcache.SwapReq_avg_mshr_miss_latency::total 23950.334801                       # average SwapReq mshr miss latency
system.cpu1.dcache.tags.pwrStateResidencyTicks::UNDEFINED 3555784960500                       # Cumulative time (in ticks) in various power states
system.cpu1.dcache.tags.tagsinuse           31.967580                       # Cycle average of tags in use
system.cpu1.dcache.tags.total_refs          309069734                       # Total number of references to valid blocks.
system.cpu1.dcache.tags.sampled_refs        126177393                       # Sample count of references to valid blocks.
system.cpu1.dcache.tags.avg_refs             2.449486                       # Average number of references to valid blocks.
system.cpu1.dcache.tags.warmup_cycle                0                       # Cycle when the warmup percentage was hit.
system.cpu1.dcache.tags.occ_blocks::.cpu1.data    31.967580                       # Average occupied blocks per requestor
system.cpu1.dcache.tags.occ_percent::.cpu1.data     0.998987                       # Average percentage of cache occupancy
system.cpu1.dcache.tags.occ_percent::total     0.998987                       # Average percentage of cache occupancy
system.cpu1.dcache.tags.occ_task_id_blocks::1024           26                       # Occupied blocks per task id
system.cpu1.dcache.tags.age_task_id_blocks_1024::1           26                       # Occupied blocks per task id
system.cpu1.dcache.tags.occ_task_id_percent::1024     0.812500                       # Percentage of cache occupancy per task id
system.cpu1.dcache.tags.tag_accesses        935840921                       # Number of tag accesses
system.cpu1.dcache.tags.data_accesses       935840921                       # Number of data accesses
system.cpu_clk_domain.clock                       500                       # Clock period in ticks
system.tol2bus.pwrStateResidencyTicks::UNDEFINED 3555784960500                       # Cumulative time (in ticks) in various power states
system.tol2bus.trans_dist::ReadResp         249317498                       # Transaction distribution
system.tol2bus.trans_dist::WritebackDirty     11935869                       # Transaction distribution
system.tol2bus.trans_dist::WritebackClean    245476310                       # Transaction distribution
system.tol2bus.trans_dist::CleanEvict       695593828                       # Transaction distribution
system.tol2bus.trans_dist::HardPFReq        405534217                       # Transaction distribution
system.tol2bus.trans_dist::HardPFResp             165                       # Transaction distribution
system.tol2bus.trans_dist::UpgradeReq          301805                       # Transaction distribution
system.tol2bus.trans_dist::SCUpgradeReq          5187                       # Transaction distribution
system.tol2bus.trans_dist::UpgradeResp         306992                       # Transaction distribution
system.tol2bus.trans_dist::SCUpgradeFailReq            1                       # Transaction distribution
system.tol2bus.trans_dist::UpgradeFailResp            1                       # Transaction distribution
system.tol2bus.trans_dist::ReadExReq          3349445                       # Transaction distribution
system.tol2bus.trans_dist::ReadExResp         3349445                       # Transaction distribution
system.tol2bus.trans_dist::ReadCleanReq        186097                       # Transaction distribution
system.tol2bus.trans_dist::ReadSharedReq    249131401                       # Transaction distribution
system.tol2bus.trans_dist::InvalidateReq            1                       # Transaction distribution
system.tol2bus.trans_dist::InvalidateResp            1                       # Transaction distribution
system.tol2bus.pkt_count_system.cpu0.icache.mem_side::system.l2.cpu_side       452621                       # Packet count per connected master and slave (bytes)
system.tol2bus.pkt_count_system.cpu0.dcache.mem_side::system.l2.cpu_side    378636901                       # Packet count per connected master and slave (bytes)
system.tol2bus.pkt_count_system.cpu1.icache.mem_side::system.l2.cpu_side       105669                       # Packet count per connected master and slave (bytes)
system.tol2bus.pkt_count_system.cpu1.dcache.mem_side::system.l2.cpu_side    378251178                       # Packet count per connected master and slave (bytes)
system.tol2bus.pkt_count::total             757446369                       # Packet count per connected master and slave (bytes)
system.tol2bus.pkt_size_system.cpu0.icache.mem_side::system.l2.cpu_side     19311808                       # Cumulative packet size per connected master and slave (bytes)
system.tol2bus.pkt_size_system.cpu0.dcache.mem_side::system.l2.cpu_side  16136682368                       # Cumulative packet size per connected master and slave (bytes)
system.tol2bus.pkt_size_system.cpu1.icache.mem_side::system.l2.cpu_side      4508544                       # Cumulative packet size per connected master and slave (bytes)
system.tol2bus.pkt_size_system.cpu1.dcache.mem_side::system.l2.cpu_side  16120162624                       # Cumulative packet size per connected master and slave (bytes)
system.tol2bus.pkt_size::total            32280665344                       # Cumulative packet size per connected master and slave (bytes)
system.tol2bus.snoops                      1107042059                       # Total snoops (count)
system.tol2bus.snoopTraffic                 364419648                       # Total snoop traffic (bytes)
system.tol2bus.snoop_fanout::samples       1359499642                       # Request fanout histogram
system.tol2bus.snoop_fanout::mean            0.182188                       # Request fanout histogram
system.tol2bus.snoop_fanout::stdev           0.395232                       # Request fanout histogram
system.tol2bus.snoop_fanout::underflows             0      0.00%      0.00% # Request fanout histogram
system.tol2bus.snoop_fanout::0             1116717765     82.14%     82.14% # Request fanout histogram
system.tol2bus.snoop_fanout::1              237878902     17.50%     99.64% # Request fanout histogram
system.tol2bus.snoop_fanout::2                4902975      0.36%    100.00% # Request fanout histogram
system.tol2bus.snoop_fanout::3                      0      0.00%    100.00% # Request fanout histogram
system.tol2bus.snoop_fanout::4                      0      0.00%    100.00% # Request fanout histogram
system.tol2bus.snoop_fanout::5                      0      0.00%    100.00% # Request fanout histogram
system.tol2bus.snoop_fanout::6                      0      0.00%    100.00% # Request fanout histogram
system.tol2bus.snoop_fanout::7                      0      0.00%    100.00% # Request fanout histogram
system.tol2bus.snoop_fanout::8                      0      0.00%    100.00% # Request fanout histogram
system.tol2bus.snoop_fanout::overflows              0      0.00%    100.00% # Request fanout histogram
system.tol2bus.snoop_fanout::min_value              0                       # Request fanout histogram
system.tol2bus.snoop_fanout::max_value              2                       # Request fanout histogram
system.tol2bus.snoop_fanout::total         1359499642                       # Request fanout histogram
system.tol2bus.reqLayer0.occupancy       505117980660                       # Layer occupancy (ticks)
system.tol2bus.reqLayer0.utilization             14.2                       # Layer utilization (%)
system.tol2bus.respLayer1.occupancy      189754827686                       # Layer occupancy (ticks)
system.tol2bus.respLayer1.utilization             5.3                       # Layer utilization (%)
system.tol2bus.respLayer0.occupancy         226701218                       # Layer occupancy (ticks)
system.tol2bus.respLayer0.utilization             0.0                       # Layer utilization (%)
system.tol2bus.respLayer3.occupancy      189567064708                       # Layer occupancy (ticks)
system.tol2bus.respLayer3.utilization             5.3                       # Layer utilization (%)
system.tol2bus.respLayer2.occupancy          52962244                       # Layer occupancy (ticks)
system.tol2bus.respLayer2.utilization             0.0                       # Layer utilization (%)
system.tol2bus.snoopLayer0.occupancy           247606                       # Layer occupancy (ticks)
system.tol2bus.snoopLayer0.utilization            0.0                       # Layer utilization (%)

---------- End Simulation Statistics   ----------
