
---------- Begin Simulation Statistics ----------
<<<<<<< HEAD
final_tick                               1909129619500                       # Number of ticks from beginning of simulation (restored from checkpoints and never reset)
host_inst_rate                                 101936                       # Simulator instruction rate (inst/s)
host_mem_usage                                 739332                       # Number of bytes of host memory used
host_op_rate                                   102265                       # Simulator op (including micro ops) rate (op/s)
host_seconds                                 23136.90                       # Real time elapsed on the host
host_tick_rate                               82514491                       # Simulator tick rate (ticks/s)
sim_freq                                 1000000000000                       # Frequency of simulated ticks
sim_insts                                  2358490953                       # Number of instructions simulated
sim_ops                                    2366101075                       # Number of ops (including micro ops) simulated
sim_seconds                                  1.909130                       # Number of seconds simulated
sim_ticks                                1909129619500                       # Number of ticks simulated
system.cpu0.branchPred.BTBCorrect                   0                       # Number of correct BTB predictions (this stat may not work properly.
system.cpu0.branchPred.BTBHitPct            86.344877                       # BTB Hit Percentage
system.cpu0.branchPred.BTBHits              298414416                       # Number of BTB hits
system.cpu0.branchPred.BTBLookups           345607553                       # Number of BTB lookups
system.cpu0.branchPred.RASInCorrect                 0                       # Number of incorrect RAS predictions.
system.cpu0.branchPred.condIncorrect         30811991                       # Number of conditional branches incorrect
system.cpu0.branchPred.condPredicted        450980968                       # Number of conditional branches predicted
system.cpu0.branchPred.indirectHits          40862866                       # Number of indirect target hits.
system.cpu0.branchPred.indirectLookups       41173492                       # Number of indirect predictor lookups.
system.cpu0.branchPred.indirectMisses          310626                       # Number of indirect misses.
system.cpu0.branchPred.lookups              587064710                       # Number of BP lookups
system.cpu0.branchPred.usedRAS                      0                       # Number of times the RAS was used to get a target.
system.cpu0.branchPredindirectMispredicted      3903688                       # Number of mispredicted indirect branches.
system.cpu0.commit.amos                       1901243                       # Number of atomic instructions committed
system.cpu0.commit.branchMispredicts         17004218                       # The number of times a branch was mispredicted
system.cpu0.commit.branches                 535025805                       # Number of branches committed
system.cpu0.commit.bw_lim_events             60336265                       # number cycles where commit BW limit reached
system.cpu0.commit.commitNonSpecStalls        5717966                       # The number of times commit has been forced to stall to communicate backwards
system.cpu0.commit.commitSquashedInsts      177036862                       # The number of squashed insts skipped by commit
system.cpu0.commit.committedInsts          2142508529                       # Number of instructions committed
system.cpu0.commit.committedOps            2144415063                       # Number of ops (including micro ops) committed
system.cpu0.commit.committed_per_cycle::samples   3445128516                       # Number of insts commited each cycle
system.cpu0.commit.committed_per_cycle::mean     0.622448                       # Number of insts commited each cycle
system.cpu0.commit.committed_per_cycle::stdev     1.385248                       # Number of insts commited each cycle
system.cpu0.commit.committed_per_cycle::underflows            0      0.00%      0.00% # Number of insts commited each cycle
system.cpu0.commit.committed_per_cycle::0   2408919327     69.92%     69.92% # Number of insts commited each cycle
system.cpu0.commit.committed_per_cycle::1    624224084     18.12%     88.04% # Number of insts commited each cycle
system.cpu0.commit.committed_per_cycle::2    136404643      3.96%     92.00% # Number of insts commited each cycle
system.cpu0.commit.committed_per_cycle::3    142476476      4.14%     96.14% # Number of insts commited each cycle
system.cpu0.commit.committed_per_cycle::4     45142295      1.31%     97.45% # Number of insts commited each cycle
system.cpu0.commit.committed_per_cycle::5     16508716      0.48%     97.93% # Number of insts commited each cycle
system.cpu0.commit.committed_per_cycle::6      3667585      0.11%     98.03% # Number of insts commited each cycle
system.cpu0.commit.committed_per_cycle::7      7449125      0.22%     98.25% # Number of insts commited each cycle
system.cpu0.commit.committed_per_cycle::8     60336265      1.75%    100.00% # Number of insts commited each cycle
system.cpu0.commit.committed_per_cycle::overflows            0      0.00%    100.00% # Number of insts commited each cycle
system.cpu0.commit.committed_per_cycle::min_value            0                       # Number of insts commited each cycle
system.cpu0.commit.committed_per_cycle::max_value            8                       # Number of insts commited each cycle
system.cpu0.commit.committed_per_cycle::total   3445128516                       # Number of insts commited each cycle
system.cpu0.commit.fp_insts                        50                       # Number of committed floating point instructions.
system.cpu0.commit.function_calls            43218853                       # Number of function calls committed.
system.cpu0.commit.int_insts               2071979289                       # Number of committed integer instructions.
system.cpu0.commit.loads                    668886381                       # Number of loads committed
system.cpu0.commit.membars                    3807643                       # Number of memory barriers committed
system.cpu0.commit.op_class_0::No_OpClass      3807649      0.18%      0.18% # Class of committed instruction
system.cpu0.commit.op_class_0::IntAlu      1188161722     55.41%     55.58% # Class of committed instruction
system.cpu0.commit.op_class_0::IntMult       18318163      0.85%     56.44% # Class of committed instruction
system.cpu0.commit.op_class_0::IntDiv         3801411      0.18%     56.62% # Class of committed instruction
system.cpu0.commit.op_class_0::FloatAdd             0      0.00%     56.62% # Class of committed instruction
system.cpu0.commit.op_class_0::FloatCmp             4      0.00%     56.62% # Class of committed instruction
system.cpu0.commit.op_class_0::FloatCvt            12      0.00%     56.62% # Class of committed instruction
system.cpu0.commit.op_class_0::FloatMult            0      0.00%     56.62% # Class of committed instruction
system.cpu0.commit.op_class_0::FloatMultAcc            0      0.00%     56.62% # Class of committed instruction
system.cpu0.commit.op_class_0::FloatDiv             2      0.00%     56.62% # Class of committed instruction
system.cpu0.commit.op_class_0::FloatMisc            4      0.00%     56.62% # Class of committed instruction
system.cpu0.commit.op_class_0::FloatSqrt            0      0.00%     56.62% # Class of committed instruction
system.cpu0.commit.op_class_0::SimdAdd              0      0.00%     56.62% # Class of committed instruction
system.cpu0.commit.op_class_0::SimdAddAcc            0      0.00%     56.62% # Class of committed instruction
system.cpu0.commit.op_class_0::SimdAlu              0      0.00%     56.62% # Class of committed instruction
system.cpu0.commit.op_class_0::SimdCmp              0      0.00%     56.62% # Class of committed instruction
system.cpu0.commit.op_class_0::SimdCvt              0      0.00%     56.62% # Class of committed instruction
system.cpu0.commit.op_class_0::SimdMisc             0      0.00%     56.62% # Class of committed instruction
system.cpu0.commit.op_class_0::SimdMult             0      0.00%     56.62% # Class of committed instruction
system.cpu0.commit.op_class_0::SimdMultAcc            0      0.00%     56.62% # Class of committed instruction
system.cpu0.commit.op_class_0::SimdShift            0      0.00%     56.62% # Class of committed instruction
system.cpu0.commit.op_class_0::SimdShiftAcc            0      0.00%     56.62% # Class of committed instruction
system.cpu0.commit.op_class_0::SimdDiv              0      0.00%     56.62% # Class of committed instruction
system.cpu0.commit.op_class_0::SimdSqrt             0      0.00%     56.62% # Class of committed instruction
system.cpu0.commit.op_class_0::SimdFloatAdd            0      0.00%     56.62% # Class of committed instruction
system.cpu0.commit.op_class_0::SimdFloatAlu            0      0.00%     56.62% # Class of committed instruction
system.cpu0.commit.op_class_0::SimdFloatCmp            0      0.00%     56.62% # Class of committed instruction
system.cpu0.commit.op_class_0::SimdFloatCvt            0      0.00%     56.62% # Class of committed instruction
system.cpu0.commit.op_class_0::SimdFloatDiv            0      0.00%     56.62% # Class of committed instruction
system.cpu0.commit.op_class_0::SimdFloatMisc            0      0.00%     56.62% # Class of committed instruction
system.cpu0.commit.op_class_0::SimdFloatMult            0      0.00%     56.62% # Class of committed instruction
system.cpu0.commit.op_class_0::SimdFloatMultAcc            0      0.00%     56.62% # Class of committed instruction
system.cpu0.commit.op_class_0::SimdFloatSqrt            0      0.00%     56.62% # Class of committed instruction
system.cpu0.commit.op_class_0::SimdReduceAdd            0      0.00%     56.62% # Class of committed instruction
system.cpu0.commit.op_class_0::SimdReduceAlu            0      0.00%     56.62% # Class of committed instruction
system.cpu0.commit.op_class_0::SimdReduceCmp            0      0.00%     56.62% # Class of committed instruction
system.cpu0.commit.op_class_0::SimdFloatReduceAdd            0      0.00%     56.62% # Class of committed instruction
system.cpu0.commit.op_class_0::SimdFloatReduceCmp            0      0.00%     56.62% # Class of committed instruction
system.cpu0.commit.op_class_0::SimdAes              0      0.00%     56.62% # Class of committed instruction
system.cpu0.commit.op_class_0::SimdAesMix            0      0.00%     56.62% # Class of committed instruction
system.cpu0.commit.op_class_0::SimdSha1Hash            0      0.00%     56.62% # Class of committed instruction
system.cpu0.commit.op_class_0::SimdSha1Hash2            0      0.00%     56.62% # Class of committed instruction
system.cpu0.commit.op_class_0::SimdSha256Hash            0      0.00%     56.62% # Class of committed instruction
system.cpu0.commit.op_class_0::SimdSha256Hash2            0      0.00%     56.62% # Class of committed instruction
system.cpu0.commit.op_class_0::SimdShaSigma2            0      0.00%     56.62% # Class of committed instruction
system.cpu0.commit.op_class_0::SimdShaSigma3            0      0.00%     56.62% # Class of committed instruction
system.cpu0.commit.op_class_0::SimdPredAlu            0      0.00%     56.62% # Class of committed instruction
system.cpu0.commit.op_class_0::MemRead      670787616     31.28%     87.90% # Class of committed instruction
system.cpu0.commit.op_class_0::MemWrite     259538452     12.10%    100.00% # Class of committed instruction
=======
final_tick                               2017417956500                       # Number of ticks from beginning of simulation (restored from checkpoints and never reset)
host_inst_rate                                  84249                       # Simulator instruction rate (inst/s)
host_mem_usage                                 702484                       # Number of bytes of host memory used
host_op_rate                                    84521                       # Simulator op (including micro ops) rate (op/s)
host_seconds                                 27950.63                       # Real time elapsed on the host
host_tick_rate                               72177919                       # Simulator tick rate (ticks/s)
sim_freq                                 1000000000000                       # Frequency of simulated ticks
sim_insts                                  2354816708                       # Number of instructions simulated
sim_ops                                    2362425604                       # Number of ops (including micro ops) simulated
sim_seconds                                  2.017418                       # Number of seconds simulated
sim_ticks                                2017417956500                       # Number of ticks simulated
system.cpu0.branchPred.BTBCorrect                   0                       # Number of correct BTB predictions (this stat may not work properly.
system.cpu0.branchPred.BTBHitPct            89.037625                       # BTB Hit Percentage
system.cpu0.branchPred.BTBHits              316055030                       # Number of BTB hits
system.cpu0.branchPred.BTBLookups           354967948                       # Number of BTB lookups
system.cpu0.branchPred.RASInCorrect                 0                       # Number of incorrect RAS predictions.
system.cpu0.branchPred.condIncorrect         48295218                       # Number of conditional branches incorrect
system.cpu0.branchPred.condPredicted        463353331                       # Number of conditional branches predicted
system.cpu0.branchPred.indirectHits          37502216                       # Number of indirect target hits.
system.cpu0.branchPred.indirectLookups       38332297                       # Number of indirect predictor lookups.
system.cpu0.branchPred.indirectMisses          830081                       # Number of indirect misses.
system.cpu0.branchPred.lookups              595661224                       # Number of BP lookups
system.cpu0.branchPred.usedRAS                      0                       # Number of times the RAS was used to get a target.
system.cpu0.branchPredindirectMispredicted      3962355                       # Number of mispredicted indirect branches.
system.cpu0.commit.amos                       3801862                       # Number of atomic instructions committed
system.cpu0.commit.branchMispredicts         25900841                       # The number of times a branch was mispredicted
system.cpu0.commit.branches                 555018982                       # Number of branches committed
system.cpu0.commit.bw_lim_events             59079082                       # number cycles where commit BW limit reached
system.cpu0.commit.commitNonSpecStalls       11419471                       # The number of times commit has been forced to stall to communicate backwards
system.cpu0.commit.commitSquashedInsts      123174613                       # The number of squashed insts skipped by commit
system.cpu0.commit.committedInsts          2224750000                       # Number of instructions committed
system.cpu0.commit.committedOps            2228557145                       # Number of ops (including micro ops) committed
system.cpu0.commit.committed_per_cycle::samples   3722383277                       # Number of insts commited each cycle
system.cpu0.commit.committed_per_cycle::mean     0.598691                       # Number of insts commited each cycle
system.cpu0.commit.committed_per_cycle::stdev     1.346435                       # Number of insts commited each cycle
system.cpu0.commit.committed_per_cycle::underflows            0      0.00%      0.00% # Number of insts commited each cycle
system.cpu0.commit.committed_per_cycle::0   2639735209     70.92%     70.92% # Number of insts commited each cycle
system.cpu0.commit.committed_per_cycle::1    637741057     17.13%     88.05% # Number of insts commited each cycle
system.cpu0.commit.committed_per_cycle::2    162497832      4.37%     92.41% # Number of insts commited each cycle
system.cpu0.commit.committed_per_cycle::3    147649413      3.97%     96.38% # Number of insts commited each cycle
system.cpu0.commit.committed_per_cycle::4     46453566      1.25%     97.63% # Number of insts commited each cycle
system.cpu0.commit.committed_per_cycle::5     15796283      0.42%     98.05% # Number of insts commited each cycle
system.cpu0.commit.committed_per_cycle::6      8571995      0.23%     98.28% # Number of insts commited each cycle
system.cpu0.commit.committed_per_cycle::7      4858840      0.13%     98.41% # Number of insts commited each cycle
system.cpu0.commit.committed_per_cycle::8     59079082      1.59%    100.00% # Number of insts commited each cycle
system.cpu0.commit.committed_per_cycle::overflows            0      0.00%    100.00% # Number of insts commited each cycle
system.cpu0.commit.committed_per_cycle::min_value            0                       # Number of insts commited each cycle
system.cpu0.commit.committed_per_cycle::max_value            8                       # Number of insts commited each cycle
system.cpu0.commit.committed_per_cycle::total   3722383277                       # Number of insts commited each cycle
system.cpu0.commit.fp_insts                        50                       # Number of committed floating point instructions.
system.cpu0.commit.function_calls            44161688                       # Number of function calls committed.
system.cpu0.commit.int_insts               2150859341                       # Number of committed integer instructions.
system.cpu0.commit.loads                    691543750                       # Number of loads committed
system.cpu0.commit.membars                    7608881                       # Number of memory barriers committed
system.cpu0.commit.op_class_0::No_OpClass      7608887      0.34%      0.34% # Class of committed instruction
system.cpu0.commit.op_class_0::IntAlu      1238734900     55.58%     55.93% # Class of committed instruction
system.cpu0.commit.op_class_0::IntMult       18318071      0.82%     56.75% # Class of committed instruction
system.cpu0.commit.op_class_0::IntDiv         3801411      0.17%     56.92% # Class of committed instruction
system.cpu0.commit.op_class_0::FloatAdd             0      0.00%     56.92% # Class of committed instruction
system.cpu0.commit.op_class_0::FloatCmp             4      0.00%     56.92% # Class of committed instruction
system.cpu0.commit.op_class_0::FloatCvt            12      0.00%     56.92% # Class of committed instruction
system.cpu0.commit.op_class_0::FloatMult            0      0.00%     56.92% # Class of committed instruction
system.cpu0.commit.op_class_0::FloatMultAcc            0      0.00%     56.92% # Class of committed instruction
system.cpu0.commit.op_class_0::FloatDiv             2      0.00%     56.92% # Class of committed instruction
system.cpu0.commit.op_class_0::FloatMisc            4      0.00%     56.92% # Class of committed instruction
system.cpu0.commit.op_class_0::FloatSqrt            0      0.00%     56.92% # Class of committed instruction
system.cpu0.commit.op_class_0::SimdAdd              0      0.00%     56.92% # Class of committed instruction
system.cpu0.commit.op_class_0::SimdAddAcc            0      0.00%     56.92% # Class of committed instruction
system.cpu0.commit.op_class_0::SimdAlu              0      0.00%     56.92% # Class of committed instruction
system.cpu0.commit.op_class_0::SimdCmp              0      0.00%     56.92% # Class of committed instruction
system.cpu0.commit.op_class_0::SimdCvt              0      0.00%     56.92% # Class of committed instruction
system.cpu0.commit.op_class_0::SimdMisc             0      0.00%     56.92% # Class of committed instruction
system.cpu0.commit.op_class_0::SimdMult             0      0.00%     56.92% # Class of committed instruction
system.cpu0.commit.op_class_0::SimdMultAcc            0      0.00%     56.92% # Class of committed instruction
system.cpu0.commit.op_class_0::SimdShift            0      0.00%     56.92% # Class of committed instruction
system.cpu0.commit.op_class_0::SimdShiftAcc            0      0.00%     56.92% # Class of committed instruction
system.cpu0.commit.op_class_0::SimdDiv              0      0.00%     56.92% # Class of committed instruction
system.cpu0.commit.op_class_0::SimdSqrt             0      0.00%     56.92% # Class of committed instruction
system.cpu0.commit.op_class_0::SimdFloatAdd            0      0.00%     56.92% # Class of committed instruction
system.cpu0.commit.op_class_0::SimdFloatAlu            0      0.00%     56.92% # Class of committed instruction
system.cpu0.commit.op_class_0::SimdFloatCmp            0      0.00%     56.92% # Class of committed instruction
system.cpu0.commit.op_class_0::SimdFloatCvt            0      0.00%     56.92% # Class of committed instruction
system.cpu0.commit.op_class_0::SimdFloatDiv            0      0.00%     56.92% # Class of committed instruction
system.cpu0.commit.op_class_0::SimdFloatMisc            0      0.00%     56.92% # Class of committed instruction
system.cpu0.commit.op_class_0::SimdFloatMult            0      0.00%     56.92% # Class of committed instruction
system.cpu0.commit.op_class_0::SimdFloatMultAcc            0      0.00%     56.92% # Class of committed instruction
system.cpu0.commit.op_class_0::SimdFloatSqrt            0      0.00%     56.92% # Class of committed instruction
system.cpu0.commit.op_class_0::SimdReduceAdd            0      0.00%     56.92% # Class of committed instruction
system.cpu0.commit.op_class_0::SimdReduceAlu            0      0.00%     56.92% # Class of committed instruction
system.cpu0.commit.op_class_0::SimdReduceCmp            0      0.00%     56.92% # Class of committed instruction
system.cpu0.commit.op_class_0::SimdFloatReduceAdd            0      0.00%     56.92% # Class of committed instruction
system.cpu0.commit.op_class_0::SimdFloatReduceCmp            0      0.00%     56.92% # Class of committed instruction
system.cpu0.commit.op_class_0::SimdAes              0      0.00%     56.92% # Class of committed instruction
system.cpu0.commit.op_class_0::SimdAesMix            0      0.00%     56.92% # Class of committed instruction
system.cpu0.commit.op_class_0::SimdSha1Hash            0      0.00%     56.92% # Class of committed instruction
system.cpu0.commit.op_class_0::SimdSha1Hash2            0      0.00%     56.92% # Class of committed instruction
system.cpu0.commit.op_class_0::SimdSha256Hash            0      0.00%     56.92% # Class of committed instruction
system.cpu0.commit.op_class_0::SimdSha256Hash2            0      0.00%     56.92% # Class of committed instruction
system.cpu0.commit.op_class_0::SimdShaSigma2            0      0.00%     56.92% # Class of committed instruction
system.cpu0.commit.op_class_0::SimdShaSigma3            0      0.00%     56.92% # Class of committed instruction
system.cpu0.commit.op_class_0::SimdPredAlu            0      0.00%     56.92% # Class of committed instruction
system.cpu0.commit.op_class_0::MemRead      695345604     31.20%     88.12% # Class of committed instruction
system.cpu0.commit.op_class_0::MemWrite     264748222     11.88%    100.00% # Class of committed instruction
>>>>>>> 6be7a0502e78ebf80a09b838e3e9c0d652379c93
system.cpu0.commit.op_class_0::FloatMemRead            8      0.00%    100.00% # Class of committed instruction
system.cpu0.commit.op_class_0::FloatMemWrite           20      0.00%    100.00% # Class of committed instruction
system.cpu0.commit.op_class_0::IprAccess            0      0.00%    100.00% # Class of committed instruction
system.cpu0.commit.op_class_0::InstPrefetch            0      0.00%    100.00% # Class of committed instruction
<<<<<<< HEAD
system.cpu0.commit.op_class_0::total       2144415063                       # Class of committed instruction
system.cpu0.commit.refs                     930326096                       # Number of memory references committed
system.cpu0.commit.swp_count                        0                       # Number of s/w prefetches committed
system.cpu0.commit.vec_insts                        0                       # Number of committed Vector instructions.
system.cpu0.committedInsts                 2142508529                       # Number of Instructions Simulated
system.cpu0.committedOps                   2144415063                       # Number of Ops (including micro ops) Simulated
system.cpu0.cpi                              1.770562                       # CPI: Cycles Per Instruction
system.cpu0.cpi_total                        1.770562                       # CPI: Total CPI of All Threads
system.cpu0.decode.BlockedCycles            414425582                       # Number of cycles decode is blocked
system.cpu0.decode.BranchMispred             13813780                       # Number of times decode detected a branch misprediction
system.cpu0.decode.BranchResolved           289453517                       # Number of times decode resolved a branch
system.cpu0.decode.DecodedInsts            2359051804                       # Number of instructions handled by decode
system.cpu0.decode.IdleCycles              1390382763                       # Number of cycles decode is idle
system.cpu0.decode.RunCycles               1649415618                       # Number of cycles decode is running
system.cpu0.decode.SquashCycles              17018474                       # Number of cycles decode is squashing
system.cpu0.decode.SquashedInsts             23321400                       # Number of squashed instructions handled by decode
system.cpu0.decode.UnblockCycles              7649715                       # Number of cycles decode is unblocking
=======
system.cpu0.commit.op_class_0::total       2228557145                       # Class of committed instruction
system.cpu0.commit.refs                     960093854                       # Number of memory references committed
system.cpu0.commit.swp_count                        0                       # Number of s/w prefetches committed
system.cpu0.commit.vec_insts                        0                       # Number of committed Vector instructions.
system.cpu0.committedInsts                 2224750000                       # Number of Instructions Simulated
system.cpu0.committedOps                   2228557145                       # Number of Ops (including micro ops) Simulated
system.cpu0.cpi                              1.810294                       # CPI: Cycles Per Instruction
system.cpu0.cpi_total                        1.810294                       # CPI: Total CPI of All Threads
system.cpu0.decode.BlockedCycles            664217419                       # Number of cycles decode is blocked
system.cpu0.decode.BranchMispred             22408098                       # Number of times decode detected a branch misprediction
system.cpu0.decode.BranchResolved           308844668                       # Number of times decode resolved a branch
system.cpu0.decode.DecodedInsts            2408478141                       # Number of instructions handled by decode
system.cpu0.decode.IdleCycles              1391511819                       # Number of cycles decode is idle
system.cpu0.decode.RunCycles               1667274367                       # Number of cycles decode is running
system.cpu0.decode.SquashCycles              25916280                       # Number of cycles decode is squashing
system.cpu0.decode.SquashedInsts             26778476                       # Number of squashed instructions handled by decode
system.cpu0.decode.UnblockCycles             10442441                       # Number of cycles decode is unblocking
>>>>>>> 6be7a0502e78ebf80a09b838e3e9c0d652379c93
system.cpu0.dtb.accesses                            0                       # DTB accesses
system.cpu0.dtb.hits                                0                       # DTB hits
system.cpu0.dtb.misses                              0                       # DTB misses
system.cpu0.dtb.read_accesses                       0                       # DTB read accesses
system.cpu0.dtb.read_hits                           0                       # DTB read hits
system.cpu0.dtb.read_misses                         0                       # DTB read misses
system.cpu0.dtb.write_accesses                      0                       # DTB write accesses
system.cpu0.dtb.write_hits                          0                       # DTB write hits
system.cpu0.dtb.write_misses                        0                       # DTB write misses
<<<<<<< HEAD
system.cpu0.fetch.Branches                  587064710                       # Number of branches that fetch encountered
system.cpu0.fetch.CacheLines                397503878                       # Number of cache lines fetched
system.cpu0.fetch.Cycles                   2092450914                       # Number of cycles fetch has run and was not squashing or blocked
system.cpu0.fetch.IcacheSquashes             12201112                       # Number of outstanding Icache misses that were squashed
system.cpu0.fetch.IcacheWaitRetryStallCycles          131                       # Number of stall cycles due to full MSHR
system.cpu0.fetch.Insts                    2409904428                       # Number of instructions fetch has processed
system.cpu0.fetch.MiscStallCycles                  35                       # Number of cycles fetch has spent waiting on interrupts, or bad addresses, or out of MSHRs
system.cpu0.fetch.PendingTrapStallCycles          149                       # Number of stall cycles due to pending traps
system.cpu0.fetch.SquashCycles               61652538                       # Number of cycles fetch has spent squashing
system.cpu0.fetch.branchRate                 0.154758                       # Number of branch fetches per cycle
system.cpu0.fetch.icacheStallCycles        1355614654                       # Number of cycles fetch is stalled on an Icache miss
system.cpu0.fetch.predictedBranches         339277282                       # Number of branches that fetch has predicted taken
system.cpu0.fetch.rate                       0.635281                       # Number of inst fetches per cycle
system.cpu0.fetch.rateDist::samples        3478892152                       # Number of instructions fetched each cycle (Total)
system.cpu0.fetch.rateDist::mean             0.693270                       # Number of instructions fetched each cycle (Total)
system.cpu0.fetch.rateDist::stdev            0.915041                       # Number of instructions fetched each cycle (Total)
system.cpu0.fetch.rateDist::underflows              0      0.00%      0.00% # Number of instructions fetched each cycle (Total)
system.cpu0.fetch.rateDist::0              1773892235     50.99%     50.99% # Number of instructions fetched each cycle (Total)
system.cpu0.fetch.rateDist::1              1268891461     36.47%     87.46% # Number of instructions fetched each cycle (Total)
system.cpu0.fetch.rateDist::2               229484921      6.60%     94.06% # Number of instructions fetched each cycle (Total)
system.cpu0.fetch.rateDist::3               164234644      4.72%     98.78% # Number of instructions fetched each cycle (Total)
system.cpu0.fetch.rateDist::4                32539304      0.94%     99.72% # Number of instructions fetched each cycle (Total)
system.cpu0.fetch.rateDist::5                 5625368      0.16%     99.88% # Number of instructions fetched each cycle (Total)
system.cpu0.fetch.rateDist::6                  415522      0.01%     99.89% # Number of instructions fetched each cycle (Total)
system.cpu0.fetch.rateDist::7                     523      0.00%     99.89% # Number of instructions fetched each cycle (Total)
system.cpu0.fetch.rateDist::8                 3808174      0.11%    100.00% # Number of instructions fetched each cycle (Total)
system.cpu0.fetch.rateDist::overflows               0      0.00%    100.00% # Number of instructions fetched each cycle (Total)
system.cpu0.fetch.rateDist::min_value               0                       # Number of instructions fetched each cycle (Total)
system.cpu0.fetch.rateDist::max_value               8                       # Number of instructions fetched each cycle (Total)
system.cpu0.fetch.rateDist::total          3478892152                       # Number of instructions fetched each cycle (Total)
system.cpu0.fp_regfile_reads                       44                       # number of floating regfile reads
system.cpu0.fp_regfile_writes                      25                       # number of floating regfile writes
system.cpu0.idleCycles                      314551758                       # Total number of cycles that the CPU has spent unscheduled due to idling
system.cpu0.iew.branchMispredicts            18396353                       # Number of branch mispredicts detected at execute
system.cpu0.iew.exec_branches               554101146                       # Number of branches executed
system.cpu0.iew.exec_nop                            0                       # number of nop insts executed
system.cpu0.iew.exec_rate                    0.608521                       # Inst execution rate
system.cpu0.iew.exec_refs                  1043038335                       # number of memory reference insts executed
system.cpu0.iew.exec_stores                 278361610                       # Number of stores executed
system.cpu0.iew.exec_swp                            0                       # number of swp insts executed
system.cpu0.iew.iewBlockCycles              344689405                       # Number of cycles IEW is blocking
system.cpu0.iew.iewDispLoadInsts            762149830                       # Number of dispatched load instructions
system.cpu0.iew.iewDispNonSpecInsts           1910599                       # Number of dispatched non-speculative instructions
system.cpu0.iew.iewDispSquashedInsts          8766512                       # Number of squashed instructions skipped by dispatch
system.cpu0.iew.iewDispStoreInsts           280216334                       # Number of dispatched store instructions
system.cpu0.iew.iewDispatchedInsts         2321421245                       # Number of instructions dispatched to IQ
system.cpu0.iew.iewExecLoadInsts            764676725                       # Number of load instructions executed
system.cpu0.iew.iewExecSquashedInsts         13748618                       # Number of squashed instructions skipped in execute
system.cpu0.iew.iewExecutedInsts           2308390142                       # Number of executed instructions
system.cpu0.iew.iewIQFullEvents               1834353                       # Number of times the IQ has become full, causing a stall
system.cpu0.iew.iewIdleCycles                       0                       # Number of cycles IEW is idle
system.cpu0.iew.iewLSQFullEvents              5318987                       # Number of times the LSQ has become full, causing a stall
system.cpu0.iew.iewSquashCycles              17018474                       # Number of cycles IEW is squashing
system.cpu0.iew.iewUnblockCycles              9190760                       # Number of cycles IEW is unblocking
system.cpu0.iew.lsq.thread0.blockedLoads            0                       # Number of blocked loads due to partial load-store forwarding
system.cpu0.iew.lsq.thread0.cacheBlocked       171926                       # Number of times an access to memory failed due to the cache being blocked
system.cpu0.iew.lsq.thread0.forwLoads        34793559                       # Number of loads that had data forwarded from stores
system.cpu0.iew.lsq.thread0.ignoredResponses       148563                       # Number of memory responses ignored because the instruction is squashed
system.cpu0.iew.lsq.thread0.invAddrLoads            0                       # Number of loads ignored due to an invalid address
system.cpu0.iew.lsq.thread0.invAddrSwpfs            0                       # Number of software prefetches ignored due to an invalid address
system.cpu0.iew.lsq.thread0.memOrderViolation        14372                       # Number of memory ordering violations
system.cpu0.iew.lsq.thread0.rescheduledLoads     11754612                       # Number of loads that were rescheduled
system.cpu0.iew.lsq.thread0.squashedLoads     93263449                       # Number of loads squashed
system.cpu0.iew.lsq.thread0.squashedStores     18776619                       # Number of stores squashed
system.cpu0.iew.memOrderViolationEvents         14372                       # Number of memory order violations
system.cpu0.iew.predictedNotTakenIncorrect      1901854                       # Number of branches that were predicted not taken incorrectly
system.cpu0.iew.predictedTakenIncorrect      16494499                       # Number of branches that were predicted taken incorrectly
system.cpu0.iew.wb_consumers               1008814504                       # num instructions consuming a value
system.cpu0.iew.wb_count                   2282913801                       # cumulative count of insts written-back
system.cpu0.iew.wb_fanout                    0.840938                       # average fanout of values written-back
system.cpu0.iew.wb_producers                848350398                       # num instructions producing a value
system.cpu0.iew.wb_rate                      0.601805                       # insts written-back per cycle
system.cpu0.iew.wb_sent                    2283148434                       # cumulative count of insts sent to commit
system.cpu0.int_regfile_reads              2808968701                       # number of integer regfile reads
system.cpu0.int_regfile_writes             1470750970                       # number of integer regfile writes
system.cpu0.ipc                              0.564792                       # IPC: Instructions Per Cycle
system.cpu0.ipc_total                        0.564792                       # IPC: Total IPC of All Threads
system.cpu0.iq.FU_type_0::No_OpClass          3810709      0.16%      0.16% # Type of FU issued
system.cpu0.iq.FU_type_0::IntAlu           1248293158     53.76%     53.92% # Type of FU issued
system.cpu0.iq.FU_type_0::IntMult            18650244      0.80%     54.72% # Type of FU issued
system.cpu0.iq.FU_type_0::IntDiv              3802473      0.16%     54.89% # Type of FU issued
system.cpu0.iq.FU_type_0::FloatAdd                  0      0.00%     54.89% # Type of FU issued
system.cpu0.iq.FU_type_0::FloatCmp                  4      0.00%     54.89% # Type of FU issued
system.cpu0.iq.FU_type_0::FloatCvt                 12      0.00%     54.89% # Type of FU issued
system.cpu0.iq.FU_type_0::FloatMult                 0      0.00%     54.89% # Type of FU issued
system.cpu0.iq.FU_type_0::FloatMultAcc              0      0.00%     54.89% # Type of FU issued
system.cpu0.iq.FU_type_0::FloatDiv                  2      0.00%     54.89% # Type of FU issued
system.cpu0.iq.FU_type_0::FloatMisc                 4      0.00%     54.89% # Type of FU issued
system.cpu0.iq.FU_type_0::FloatSqrt                 0      0.00%     54.89% # Type of FU issued
system.cpu0.iq.FU_type_0::SimdAdd                   0      0.00%     54.89% # Type of FU issued
system.cpu0.iq.FU_type_0::SimdAddAcc                0      0.00%     54.89% # Type of FU issued
system.cpu0.iq.FU_type_0::SimdAlu                   0      0.00%     54.89% # Type of FU issued
system.cpu0.iq.FU_type_0::SimdCmp                   0      0.00%     54.89% # Type of FU issued
system.cpu0.iq.FU_type_0::SimdCvt                   0      0.00%     54.89% # Type of FU issued
system.cpu0.iq.FU_type_0::SimdMisc                  0      0.00%     54.89% # Type of FU issued
system.cpu0.iq.FU_type_0::SimdMult                  0      0.00%     54.89% # Type of FU issued
system.cpu0.iq.FU_type_0::SimdMultAcc               0      0.00%     54.89% # Type of FU issued
system.cpu0.iq.FU_type_0::SimdShift                 0      0.00%     54.89% # Type of FU issued
system.cpu0.iq.FU_type_0::SimdShiftAcc              0      0.00%     54.89% # Type of FU issued
system.cpu0.iq.FU_type_0::SimdDiv                   0      0.00%     54.89% # Type of FU issued
system.cpu0.iq.FU_type_0::SimdSqrt                  0      0.00%     54.89% # Type of FU issued
system.cpu0.iq.FU_type_0::SimdFloatAdd              0      0.00%     54.89% # Type of FU issued
system.cpu0.iq.FU_type_0::SimdFloatAlu              0      0.00%     54.89% # Type of FU issued
system.cpu0.iq.FU_type_0::SimdFloatCmp              0      0.00%     54.89% # Type of FU issued
system.cpu0.iq.FU_type_0::SimdFloatCvt              0      0.00%     54.89% # Type of FU issued
system.cpu0.iq.FU_type_0::SimdFloatDiv              0      0.00%     54.89% # Type of FU issued
system.cpu0.iq.FU_type_0::SimdFloatMisc             0      0.00%     54.89% # Type of FU issued
system.cpu0.iq.FU_type_0::SimdFloatMult             0      0.00%     54.89% # Type of FU issued
system.cpu0.iq.FU_type_0::SimdFloatMultAcc            0      0.00%     54.89% # Type of FU issued
system.cpu0.iq.FU_type_0::SimdFloatSqrt             0      0.00%     54.89% # Type of FU issued
system.cpu0.iq.FU_type_0::SimdReduceAdd             0      0.00%     54.89% # Type of FU issued
system.cpu0.iq.FU_type_0::SimdReduceAlu             0      0.00%     54.89% # Type of FU issued
system.cpu0.iq.FU_type_0::SimdReduceCmp             0      0.00%     54.89% # Type of FU issued
system.cpu0.iq.FU_type_0::SimdFloatReduceAdd            0      0.00%     54.89% # Type of FU issued
system.cpu0.iq.FU_type_0::SimdFloatReduceCmp            0      0.00%     54.89% # Type of FU issued
system.cpu0.iq.FU_type_0::SimdAes                   0      0.00%     54.89% # Type of FU issued
system.cpu0.iq.FU_type_0::SimdAesMix                0      0.00%     54.89% # Type of FU issued
system.cpu0.iq.FU_type_0::SimdSha1Hash              0      0.00%     54.89% # Type of FU issued
system.cpu0.iq.FU_type_0::SimdSha1Hash2             0      0.00%     54.89% # Type of FU issued
system.cpu0.iq.FU_type_0::SimdSha256Hash            0      0.00%     54.89% # Type of FU issued
system.cpu0.iq.FU_type_0::SimdSha256Hash2            0      0.00%     54.89% # Type of FU issued
system.cpu0.iq.FU_type_0::SimdShaSigma2             0      0.00%     54.89% # Type of FU issued
system.cpu0.iq.FU_type_0::SimdShaSigma3             0      0.00%     54.89% # Type of FU issued
system.cpu0.iq.FU_type_0::SimdPredAlu               0      0.00%     54.89% # Type of FU issued
system.cpu0.iq.FU_type_0::MemRead           770639474     33.19%     88.07% # Type of FU issued
system.cpu0.iq.FU_type_0::MemWrite          276942644     11.93%    100.00% # Type of FU issued
system.cpu0.iq.FU_type_0::FloatMemRead             16      0.00%    100.00% # Type of FU issued
system.cpu0.iq.FU_type_0::FloatMemWrite            20      0.00%    100.00% # Type of FU issued
system.cpu0.iq.FU_type_0::IprAccess                 0      0.00%    100.00% # Type of FU issued
system.cpu0.iq.FU_type_0::InstPrefetch              0      0.00%    100.00% # Type of FU issued
system.cpu0.iq.FU_type_0::total            2322138760                       # Type of FU issued
system.cpu0.iq.fp_alu_accesses                     62                       # Number of floating point alu accesses
system.cpu0.iq.fp_inst_queue_reads                120                       # Number of floating instruction queue reads
system.cpu0.iq.fp_inst_queue_wakeup_accesses           53                       # Number of floating instruction queue wakeup accesses
system.cpu0.iq.fp_inst_queue_writes               114                       # Number of floating instruction queue writes
system.cpu0.iq.fu_busy_cnt                    2457870                       # FU busy when requested
system.cpu0.iq.fu_busy_rate                  0.001058                       # FU busy rate (busy events/executed inst)
system.cpu0.iq.fu_full::No_OpClass                  0      0.00%      0.00% # attempts to use FU when none available
system.cpu0.iq.fu_full::IntAlu                 436752     17.77%     17.77% # attempts to use FU when none available
system.cpu0.iq.fu_full::IntMult                    20      0.00%     17.77% # attempts to use FU when none available
system.cpu0.iq.fu_full::IntDiv                      0      0.00%     17.77% # attempts to use FU when none available
system.cpu0.iq.fu_full::FloatAdd                    0      0.00%     17.77% # attempts to use FU when none available
system.cpu0.iq.fu_full::FloatCmp                    0      0.00%     17.77% # attempts to use FU when none available
system.cpu0.iq.fu_full::FloatCvt                    0      0.00%     17.77% # attempts to use FU when none available
system.cpu0.iq.fu_full::FloatMult                   0      0.00%     17.77% # attempts to use FU when none available
system.cpu0.iq.fu_full::FloatMultAcc                0      0.00%     17.77% # attempts to use FU when none available
system.cpu0.iq.fu_full::FloatDiv                    0      0.00%     17.77% # attempts to use FU when none available
system.cpu0.iq.fu_full::FloatMisc                   0      0.00%     17.77% # attempts to use FU when none available
system.cpu0.iq.fu_full::FloatSqrt                   0      0.00%     17.77% # attempts to use FU when none available
system.cpu0.iq.fu_full::SimdAdd                     0      0.00%     17.77% # attempts to use FU when none available
system.cpu0.iq.fu_full::SimdAddAcc                  0      0.00%     17.77% # attempts to use FU when none available
system.cpu0.iq.fu_full::SimdAlu                     0      0.00%     17.77% # attempts to use FU when none available
system.cpu0.iq.fu_full::SimdCmp                     0      0.00%     17.77% # attempts to use FU when none available
system.cpu0.iq.fu_full::SimdCvt                     0      0.00%     17.77% # attempts to use FU when none available
system.cpu0.iq.fu_full::SimdMisc                    0      0.00%     17.77% # attempts to use FU when none available
system.cpu0.iq.fu_full::SimdMult                    0      0.00%     17.77% # attempts to use FU when none available
system.cpu0.iq.fu_full::SimdMultAcc                 0      0.00%     17.77% # attempts to use FU when none available
system.cpu0.iq.fu_full::SimdShift                   0      0.00%     17.77% # attempts to use FU when none available
system.cpu0.iq.fu_full::SimdShiftAcc                0      0.00%     17.77% # attempts to use FU when none available
system.cpu0.iq.fu_full::SimdDiv                     0      0.00%     17.77% # attempts to use FU when none available
system.cpu0.iq.fu_full::SimdSqrt                    0      0.00%     17.77% # attempts to use FU when none available
system.cpu0.iq.fu_full::SimdFloatAdd                0      0.00%     17.77% # attempts to use FU when none available
system.cpu0.iq.fu_full::SimdFloatAlu                0      0.00%     17.77% # attempts to use FU when none available
system.cpu0.iq.fu_full::SimdFloatCmp                0      0.00%     17.77% # attempts to use FU when none available
system.cpu0.iq.fu_full::SimdFloatCvt                0      0.00%     17.77% # attempts to use FU when none available
system.cpu0.iq.fu_full::SimdFloatDiv                0      0.00%     17.77% # attempts to use FU when none available
system.cpu0.iq.fu_full::SimdFloatMisc               0      0.00%     17.77% # attempts to use FU when none available
system.cpu0.iq.fu_full::SimdFloatMult               0      0.00%     17.77% # attempts to use FU when none available
system.cpu0.iq.fu_full::SimdFloatMultAcc            0      0.00%     17.77% # attempts to use FU when none available
system.cpu0.iq.fu_full::SimdFloatSqrt               0      0.00%     17.77% # attempts to use FU when none available
system.cpu0.iq.fu_full::SimdReduceAdd               0      0.00%     17.77% # attempts to use FU when none available
system.cpu0.iq.fu_full::SimdReduceAlu               0      0.00%     17.77% # attempts to use FU when none available
system.cpu0.iq.fu_full::SimdReduceCmp               0      0.00%     17.77% # attempts to use FU when none available
system.cpu0.iq.fu_full::SimdFloatReduceAdd            0      0.00%     17.77% # attempts to use FU when none available
system.cpu0.iq.fu_full::SimdFloatReduceCmp            0      0.00%     17.77% # attempts to use FU when none available
system.cpu0.iq.fu_full::SimdAes                     0      0.00%     17.77% # attempts to use FU when none available
system.cpu0.iq.fu_full::SimdAesMix                  0      0.00%     17.77% # attempts to use FU when none available
system.cpu0.iq.fu_full::SimdSha1Hash                0      0.00%     17.77% # attempts to use FU when none available
system.cpu0.iq.fu_full::SimdSha1Hash2               0      0.00%     17.77% # attempts to use FU when none available
system.cpu0.iq.fu_full::SimdSha256Hash              0      0.00%     17.77% # attempts to use FU when none available
system.cpu0.iq.fu_full::SimdSha256Hash2             0      0.00%     17.77% # attempts to use FU when none available
system.cpu0.iq.fu_full::SimdShaSigma2               0      0.00%     17.77% # attempts to use FU when none available
system.cpu0.iq.fu_full::SimdShaSigma3               0      0.00%     17.77% # attempts to use FU when none available
system.cpu0.iq.fu_full::SimdPredAlu                 0      0.00%     17.77% # attempts to use FU when none available
system.cpu0.iq.fu_full::MemRead               1744154     70.96%     88.73% # attempts to use FU when none available
system.cpu0.iq.fu_full::MemWrite               276940     11.27%    100.00% # attempts to use FU when none available
=======
system.cpu0.fetch.Branches                  595661224                       # Number of branches that fetch encountered
system.cpu0.fetch.CacheLines                419465772                       # Number of cache lines fetched
system.cpu0.fetch.Cycles                   2368013202                       # Number of cycles fetch has run and was not squashing or blocked
system.cpu0.fetch.IcacheSquashes             12764722                       # Number of outstanding Icache misses that were squashed
system.cpu0.fetch.IcacheWaitRetryStallCycles          235                       # Number of stall cycles due to full MSHR
system.cpu0.fetch.Insts                    2460299006                       # Number of instructions fetch has processed
system.cpu0.fetch.MiscStallCycles                  78                       # Number of cycles fetch has spent waiting on interrupts, or bad addresses, or out of MSHRs
system.cpu0.fetch.PendingTrapStallCycles          353                       # Number of stall cycles due to pending traps
system.cpu0.fetch.SquashCycles               96621426                       # Number of cycles fetch has spent squashing
system.cpu0.fetch.branchRate                 0.147900                       # Number of branch fetches per cycle
system.cpu0.fetch.icacheStallCycles        1343037745                       # Number of cycles fetch is stalled on an Icache miss
system.cpu0.fetch.predictedBranches         353557246                       # Number of branches that fetch has predicted taken
system.cpu0.fetch.rate                       0.610882                       # Number of inst fetches per cycle
system.cpu0.fetch.rateDist::samples        3759362326                       # Number of instructions fetched each cycle (Total)
system.cpu0.fetch.rateDist::mean             0.655459                       # Number of instructions fetched each cycle (Total)
system.cpu0.fetch.rateDist::stdev            0.904656                       # Number of instructions fetched each cycle (Total)
system.cpu0.fetch.rateDist::underflows              0      0.00%      0.00% # Number of instructions fetched each cycle (Total)
system.cpu0.fetch.rateDist::0              2016977703     53.65%     53.65% # Number of instructions fetched each cycle (Total)
system.cpu0.fetch.rateDist::1              1298219131     34.53%     88.19% # Number of instructions fetched each cycle (Total)
system.cpu0.fetch.rateDist::2               233733198      6.22%     94.40% # Number of instructions fetched each cycle (Total)
system.cpu0.fetch.rateDist::3               166802875      4.44%     98.84% # Number of instructions fetched each cycle (Total)
system.cpu0.fetch.rateDist::4                32658878      0.87%     99.71% # Number of instructions fetched each cycle (Total)
system.cpu0.fetch.rateDist::5                 6060644      0.16%     99.87% # Number of instructions fetched each cycle (Total)
system.cpu0.fetch.rateDist::6                 1102517      0.03%     99.90% # Number of instructions fetched each cycle (Total)
system.cpu0.fetch.rateDist::7                     468      0.00%     99.90% # Number of instructions fetched each cycle (Total)
system.cpu0.fetch.rateDist::8                 3806912      0.10%    100.00% # Number of instructions fetched each cycle (Total)
system.cpu0.fetch.rateDist::overflows               0      0.00%    100.00% # Number of instructions fetched each cycle (Total)
system.cpu0.fetch.rateDist::min_value               0                       # Number of instructions fetched each cycle (Total)
system.cpu0.fetch.rateDist::max_value               8                       # Number of instructions fetched each cycle (Total)
system.cpu0.fetch.rateDist::total          3759362326                       # Number of instructions fetched each cycle (Total)
system.cpu0.fp_regfile_reads                       44                       # number of floating regfile reads
system.cpu0.fp_regfile_writes                      26                       # number of floating regfile writes
system.cpu0.idleCycles                      268088630                       # Total number of cycles that the CPU has spent unscheduled due to idling
system.cpu0.iew.branchMispredicts            27847971                       # Number of branch mispredicts detected at execute
system.cpu0.iew.exec_branches               563975274                       # Number of branches executed
system.cpu0.iew.exec_nop                            0                       # number of nop insts executed
system.cpu0.iew.exec_rate                    0.578776                       # Inst execution rate
system.cpu0.iew.exec_refs                  1033528657                       # number of memory reference insts executed
system.cpu0.iew.exec_stores                 271871298                       # Number of stores executed
system.cpu0.iew.exec_swp                            0                       # number of swp insts executed
system.cpu0.iew.iewBlockCycles              559881931                       # Number of cycles IEW is blocking
system.cpu0.iew.iewDispLoadInsts            762413690                       # Number of dispatched load instructions
system.cpu0.iew.iewDispNonSpecInsts           3810822                       # Number of dispatched non-speculative instructions
system.cpu0.iew.iewDispSquashedInsts         14090422                       # Number of squashed instructions skipped by dispatch
system.cpu0.iew.iewDispStoreInsts           273518347                       # Number of dispatched store instructions
system.cpu0.iew.iewDispatchedInsts         2351692824                       # Number of instructions dispatched to IQ
system.cpu0.iew.iewExecLoadInsts            761657359                       # Number of load instructions executed
system.cpu0.iew.iewExecSquashedInsts         20235298                       # Number of squashed instructions skipped in execute
system.cpu0.iew.iewExecutedInsts           2330990754                       # Number of executed instructions
system.cpu0.iew.iewIQFullEvents               3763582                       # Number of times the IQ has become full, causing a stall
system.cpu0.iew.iewIdleCycles                       0                       # Number of cycles IEW is idle
system.cpu0.iew.iewLSQFullEvents              6006762                       # Number of times the LSQ has become full, causing a stall
system.cpu0.iew.iewSquashCycles              25916280                       # Number of cycles IEW is squashing
system.cpu0.iew.iewUnblockCycles             13940027                       # Number of cycles IEW is unblocking
system.cpu0.iew.lsq.thread0.blockedLoads            0                       # Number of blocked loads due to partial load-store forwarding
system.cpu0.iew.lsq.thread0.cacheBlocked       190283                       # Number of times an access to memory failed due to the cache being blocked
system.cpu0.iew.lsq.thread0.forwLoads        35821643                       # Number of loads that had data forwarded from stores
system.cpu0.iew.lsq.thread0.ignoredResponses        83860                       # Number of memory responses ignored because the instruction is squashed
system.cpu0.iew.lsq.thread0.invAddrLoads            0                       # Number of loads ignored due to an invalid address
system.cpu0.iew.lsq.thread0.invAddrSwpfs            0                       # Number of software prefetches ignored due to an invalid address
system.cpu0.iew.lsq.thread0.memOrderViolation        16241                       # Number of memory ordering violations
system.cpu0.iew.lsq.thread0.rescheduledLoads      7924709                       # Number of loads that were rescheduled
system.cpu0.iew.lsq.thread0.squashedLoads     70869940                       # Number of loads squashed
system.cpu0.iew.lsq.thread0.squashedStores      4968243                       # Number of stores squashed
system.cpu0.iew.memOrderViolationEvents         16241                       # Number of memory order violations
system.cpu0.iew.predictedNotTakenIncorrect      1983171                       # Number of branches that were predicted not taken incorrectly
system.cpu0.iew.predictedTakenIncorrect      25864800                       # Number of branches that were predicted taken incorrectly
system.cpu0.iew.wb_consumers               1034366847                       # num instructions consuming a value
system.cpu0.iew.wb_count                   2307830110                       # cumulative count of insts written-back
system.cpu0.iew.wb_fanout                    0.841099                       # average fanout of values written-back
system.cpu0.iew.wb_producers                870005427                       # num instructions producing a value
system.cpu0.iew.wb_rate                      0.573025                       # insts written-back per cycle
system.cpu0.iew.wb_sent                    2308078141                       # cumulative count of insts sent to commit
system.cpu0.int_regfile_reads              2844684906                       # number of integer regfile reads
system.cpu0.int_regfile_writes             1488821610                       # number of integer regfile writes
system.cpu0.ipc                              0.552397                       # IPC: Instructions Per Cycle
system.cpu0.ipc_total                        0.552397                       # IPC: Total IPC of All Threads
system.cpu0.iq.FU_type_0::No_OpClass          7611808      0.32%      0.32% # Type of FU issued
system.cpu0.iq.FU_type_0::IntAlu           1279748673     54.43%     54.75% # Type of FU issued
system.cpu0.iq.FU_type_0::IntMult            18650120      0.79%     55.55% # Type of FU issued
system.cpu0.iq.FU_type_0::IntDiv              3802410      0.16%     55.71% # Type of FU issued
system.cpu0.iq.FU_type_0::FloatAdd                  0      0.00%     55.71% # Type of FU issued
system.cpu0.iq.FU_type_0::FloatCmp                  4      0.00%     55.71% # Type of FU issued
system.cpu0.iq.FU_type_0::FloatCvt                 12      0.00%     55.71% # Type of FU issued
system.cpu0.iq.FU_type_0::FloatMult                 0      0.00%     55.71% # Type of FU issued
system.cpu0.iq.FU_type_0::FloatMultAcc              0      0.00%     55.71% # Type of FU issued
system.cpu0.iq.FU_type_0::FloatDiv                  2      0.00%     55.71% # Type of FU issued
system.cpu0.iq.FU_type_0::FloatMisc                 4      0.00%     55.71% # Type of FU issued
system.cpu0.iq.FU_type_0::FloatSqrt                 0      0.00%     55.71% # Type of FU issued
system.cpu0.iq.FU_type_0::SimdAdd                   0      0.00%     55.71% # Type of FU issued
system.cpu0.iq.FU_type_0::SimdAddAcc                0      0.00%     55.71% # Type of FU issued
system.cpu0.iq.FU_type_0::SimdAlu                   0      0.00%     55.71% # Type of FU issued
system.cpu0.iq.FU_type_0::SimdCmp                   0      0.00%     55.71% # Type of FU issued
system.cpu0.iq.FU_type_0::SimdCvt                   0      0.00%     55.71% # Type of FU issued
system.cpu0.iq.FU_type_0::SimdMisc                  0      0.00%     55.71% # Type of FU issued
system.cpu0.iq.FU_type_0::SimdMult                  0      0.00%     55.71% # Type of FU issued
system.cpu0.iq.FU_type_0::SimdMultAcc               0      0.00%     55.71% # Type of FU issued
system.cpu0.iq.FU_type_0::SimdShift                 0      0.00%     55.71% # Type of FU issued
system.cpu0.iq.FU_type_0::SimdShiftAcc              0      0.00%     55.71% # Type of FU issued
system.cpu0.iq.FU_type_0::SimdDiv                   0      0.00%     55.71% # Type of FU issued
system.cpu0.iq.FU_type_0::SimdSqrt                  0      0.00%     55.71% # Type of FU issued
system.cpu0.iq.FU_type_0::SimdFloatAdd              0      0.00%     55.71% # Type of FU issued
system.cpu0.iq.FU_type_0::SimdFloatAlu              0      0.00%     55.71% # Type of FU issued
system.cpu0.iq.FU_type_0::SimdFloatCmp              0      0.00%     55.71% # Type of FU issued
system.cpu0.iq.FU_type_0::SimdFloatCvt              0      0.00%     55.71% # Type of FU issued
system.cpu0.iq.FU_type_0::SimdFloatDiv              0      0.00%     55.71% # Type of FU issued
system.cpu0.iq.FU_type_0::SimdFloatMisc             0      0.00%     55.71% # Type of FU issued
system.cpu0.iq.FU_type_0::SimdFloatMult             0      0.00%     55.71% # Type of FU issued
system.cpu0.iq.FU_type_0::SimdFloatMultAcc            0      0.00%     55.71% # Type of FU issued
system.cpu0.iq.FU_type_0::SimdFloatSqrt             0      0.00%     55.71% # Type of FU issued
system.cpu0.iq.FU_type_0::SimdReduceAdd             0      0.00%     55.71% # Type of FU issued
system.cpu0.iq.FU_type_0::SimdReduceAlu             0      0.00%     55.71% # Type of FU issued
system.cpu0.iq.FU_type_0::SimdReduceCmp             0      0.00%     55.71% # Type of FU issued
system.cpu0.iq.FU_type_0::SimdFloatReduceAdd            0      0.00%     55.71% # Type of FU issued
system.cpu0.iq.FU_type_0::SimdFloatReduceCmp            0      0.00%     55.71% # Type of FU issued
system.cpu0.iq.FU_type_0::SimdAes                   0      0.00%     55.71% # Type of FU issued
system.cpu0.iq.FU_type_0::SimdAesMix                0      0.00%     55.71% # Type of FU issued
system.cpu0.iq.FU_type_0::SimdSha1Hash              0      0.00%     55.71% # Type of FU issued
system.cpu0.iq.FU_type_0::SimdSha1Hash2             0      0.00%     55.71% # Type of FU issued
system.cpu0.iq.FU_type_0::SimdSha256Hash            0      0.00%     55.71% # Type of FU issued
system.cpu0.iq.FU_type_0::SimdSha256Hash2            0      0.00%     55.71% # Type of FU issued
system.cpu0.iq.FU_type_0::SimdShaSigma2             0      0.00%     55.71% # Type of FU issued
system.cpu0.iq.FU_type_0::SimdShaSigma3             0      0.00%     55.71% # Type of FU issued
system.cpu0.iq.FU_type_0::SimdPredAlu               0      0.00%     55.71% # Type of FU issued
system.cpu0.iq.FU_type_0::MemRead           772913909     32.87%     88.58% # Type of FU issued
system.cpu0.iq.FU_type_0::MemWrite          268499073     11.42%    100.00% # Type of FU issued
system.cpu0.iq.FU_type_0::FloatMemRead             17      0.00%    100.00% # Type of FU issued
system.cpu0.iq.FU_type_0::FloatMemWrite            20      0.00%    100.00% # Type of FU issued
system.cpu0.iq.FU_type_0::IprAccess                 0      0.00%    100.00% # Type of FU issued
system.cpu0.iq.FU_type_0::InstPrefetch              0      0.00%    100.00% # Type of FU issued
system.cpu0.iq.FU_type_0::total            2351226052                       # Type of FU issued
system.cpu0.iq.fp_alu_accesses                     63                       # Number of floating point alu accesses
system.cpu0.iq.fp_inst_queue_reads                122                       # Number of floating instruction queue reads
system.cpu0.iq.fp_inst_queue_wakeup_accesses           54                       # Number of floating instruction queue wakeup accesses
system.cpu0.iq.fp_inst_queue_writes                90                       # Number of floating instruction queue writes
system.cpu0.iq.fu_busy_cnt                    4454218                       # FU busy when requested
system.cpu0.iq.fu_busy_rate                  0.001894                       # FU busy rate (busy events/executed inst)
system.cpu0.iq.fu_full::No_OpClass                  0      0.00%      0.00% # attempts to use FU when none available
system.cpu0.iq.fu_full::IntAlu                 712866     16.00%     16.00% # attempts to use FU when none available
system.cpu0.iq.fu_full::IntMult                    16      0.00%     16.00% # attempts to use FU when none available
system.cpu0.iq.fu_full::IntDiv                      0      0.00%     16.00% # attempts to use FU when none available
system.cpu0.iq.fu_full::FloatAdd                    0      0.00%     16.00% # attempts to use FU when none available
system.cpu0.iq.fu_full::FloatCmp                    0      0.00%     16.00% # attempts to use FU when none available
system.cpu0.iq.fu_full::FloatCvt                    0      0.00%     16.00% # attempts to use FU when none available
system.cpu0.iq.fu_full::FloatMult                   0      0.00%     16.00% # attempts to use FU when none available
system.cpu0.iq.fu_full::FloatMultAcc                0      0.00%     16.00% # attempts to use FU when none available
system.cpu0.iq.fu_full::FloatDiv                    0      0.00%     16.00% # attempts to use FU when none available
system.cpu0.iq.fu_full::FloatMisc                   0      0.00%     16.00% # attempts to use FU when none available
system.cpu0.iq.fu_full::FloatSqrt                   0      0.00%     16.00% # attempts to use FU when none available
system.cpu0.iq.fu_full::SimdAdd                     0      0.00%     16.00% # attempts to use FU when none available
system.cpu0.iq.fu_full::SimdAddAcc                  0      0.00%     16.00% # attempts to use FU when none available
system.cpu0.iq.fu_full::SimdAlu                     0      0.00%     16.00% # attempts to use FU when none available
system.cpu0.iq.fu_full::SimdCmp                     0      0.00%     16.00% # attempts to use FU when none available
system.cpu0.iq.fu_full::SimdCvt                     0      0.00%     16.00% # attempts to use FU when none available
system.cpu0.iq.fu_full::SimdMisc                    0      0.00%     16.00% # attempts to use FU when none available
system.cpu0.iq.fu_full::SimdMult                    0      0.00%     16.00% # attempts to use FU when none available
system.cpu0.iq.fu_full::SimdMultAcc                 0      0.00%     16.00% # attempts to use FU when none available
system.cpu0.iq.fu_full::SimdShift                   0      0.00%     16.00% # attempts to use FU when none available
system.cpu0.iq.fu_full::SimdShiftAcc                0      0.00%     16.00% # attempts to use FU when none available
system.cpu0.iq.fu_full::SimdDiv                     0      0.00%     16.00% # attempts to use FU when none available
system.cpu0.iq.fu_full::SimdSqrt                    0      0.00%     16.00% # attempts to use FU when none available
system.cpu0.iq.fu_full::SimdFloatAdd                0      0.00%     16.00% # attempts to use FU when none available
system.cpu0.iq.fu_full::SimdFloatAlu                0      0.00%     16.00% # attempts to use FU when none available
system.cpu0.iq.fu_full::SimdFloatCmp                0      0.00%     16.00% # attempts to use FU when none available
system.cpu0.iq.fu_full::SimdFloatCvt                0      0.00%     16.00% # attempts to use FU when none available
system.cpu0.iq.fu_full::SimdFloatDiv                0      0.00%     16.00% # attempts to use FU when none available
system.cpu0.iq.fu_full::SimdFloatMisc               0      0.00%     16.00% # attempts to use FU when none available
system.cpu0.iq.fu_full::SimdFloatMult               0      0.00%     16.00% # attempts to use FU when none available
system.cpu0.iq.fu_full::SimdFloatMultAcc            0      0.00%     16.00% # attempts to use FU when none available
system.cpu0.iq.fu_full::SimdFloatSqrt               0      0.00%     16.00% # attempts to use FU when none available
system.cpu0.iq.fu_full::SimdReduceAdd               0      0.00%     16.00% # attempts to use FU when none available
system.cpu0.iq.fu_full::SimdReduceAlu               0      0.00%     16.00% # attempts to use FU when none available
system.cpu0.iq.fu_full::SimdReduceCmp               0      0.00%     16.00% # attempts to use FU when none available
system.cpu0.iq.fu_full::SimdFloatReduceAdd            0      0.00%     16.00% # attempts to use FU when none available
system.cpu0.iq.fu_full::SimdFloatReduceCmp            0      0.00%     16.00% # attempts to use FU when none available
system.cpu0.iq.fu_full::SimdAes                     0      0.00%     16.00% # attempts to use FU when none available
system.cpu0.iq.fu_full::SimdAesMix                  0      0.00%     16.00% # attempts to use FU when none available
system.cpu0.iq.fu_full::SimdSha1Hash                0      0.00%     16.00% # attempts to use FU when none available
system.cpu0.iq.fu_full::SimdSha1Hash2               0      0.00%     16.00% # attempts to use FU when none available
system.cpu0.iq.fu_full::SimdSha256Hash              0      0.00%     16.00% # attempts to use FU when none available
system.cpu0.iq.fu_full::SimdSha256Hash2             0      0.00%     16.00% # attempts to use FU when none available
system.cpu0.iq.fu_full::SimdShaSigma2               0      0.00%     16.00% # attempts to use FU when none available
system.cpu0.iq.fu_full::SimdShaSigma3               0      0.00%     16.00% # attempts to use FU when none available
system.cpu0.iq.fu_full::SimdPredAlu                 0      0.00%     16.00% # attempts to use FU when none available
system.cpu0.iq.fu_full::MemRead               3272339     73.47%     89.47% # attempts to use FU when none available
system.cpu0.iq.fu_full::MemWrite               468993     10.53%    100.00% # attempts to use FU when none available
>>>>>>> 6be7a0502e78ebf80a09b838e3e9c0d652379c93
system.cpu0.iq.fu_full::FloatMemRead                0      0.00%    100.00% # attempts to use FU when none available
system.cpu0.iq.fu_full::FloatMemWrite               4      0.00%    100.00% # attempts to use FU when none available
system.cpu0.iq.fu_full::IprAccess                   0      0.00%    100.00% # attempts to use FU when none available
system.cpu0.iq.fu_full::InstPrefetch                0      0.00%    100.00% # attempts to use FU when none available
<<<<<<< HEAD
system.cpu0.iq.int_alu_accesses            2320785859                       # Number of integer alu accesses
system.cpu0.iq.int_inst_queue_reads        8125781787                       # Number of integer instruction queue reads
system.cpu0.iq.int_inst_queue_wakeup_accesses   2282913748                       # Number of integer instruction queue wakeup accesses
system.cpu0.iq.int_inst_queue_writes       2498440448                       # Number of integer instruction queue writes
system.cpu0.iq.iqInstsAdded                2315702693                       # Number of instructions added to the IQ (excludes non-spec)
system.cpu0.iq.iqInstsIssued               2322138760                       # Number of instructions issued
system.cpu0.iq.iqNonSpecInstsAdded            5718552                       # Number of non-speculative instructions added to the IQ
system.cpu0.iq.iqSquashedInstsExamined      177006179                       # Number of squashed instructions iterated over during squash; mainly for profiling
system.cpu0.iq.iqSquashedInstsIssued           154365                       # Number of squashed instructions issued
system.cpu0.iq.iqSquashedNonSpecRemoved           586                       # Number of squashed non-spec instructions that were removed
system.cpu0.iq.iqSquashedOperandsExamined     34621132                       # Number of squashed operands that are examined and possibly removed from graph
system.cpu0.iq.issued_per_cycle::samples   3478892152                       # Number of insts issued each cycle
system.cpu0.iq.issued_per_cycle::mean        0.667494                       # Number of insts issued each cycle
system.cpu0.iq.issued_per_cycle::stdev       0.853608                       # Number of insts issued each cycle
system.cpu0.iq.issued_per_cycle::underflows            0      0.00%      0.00% # Number of insts issued each cycle
system.cpu0.iq.issued_per_cycle::0         1844759620     53.03%     53.03% # Number of insts issued each cycle
system.cpu0.iq.issued_per_cycle::1         1108444927     31.86%     84.89% # Number of insts issued each cycle
system.cpu0.iq.issued_per_cycle::2          387412258     11.14%     96.03% # Number of insts issued each cycle
system.cpu0.iq.issued_per_cycle::3          118454114      3.40%     99.43% # Number of insts issued each cycle
system.cpu0.iq.issued_per_cycle::4           17592972      0.51%     99.94% # Number of insts issued each cycle
system.cpu0.iq.issued_per_cycle::5             849709      0.02%     99.96% # Number of insts issued each cycle
system.cpu0.iq.issued_per_cycle::6             943724      0.03%     99.99% # Number of insts issued each cycle
system.cpu0.iq.issued_per_cycle::7             254426      0.01%     99.99% # Number of insts issued each cycle
system.cpu0.iq.issued_per_cycle::8             180402      0.01%    100.00% # Number of insts issued each cycle
system.cpu0.iq.issued_per_cycle::overflows            0      0.00%    100.00% # Number of insts issued each cycle
system.cpu0.iq.issued_per_cycle::min_value            0                       # Number of insts issued each cycle
system.cpu0.iq.issued_per_cycle::max_value            8                       # Number of insts issued each cycle
system.cpu0.iq.issued_per_cycle::total     3478892152                       # Number of insts issued each cycle
system.cpu0.iq.rate                          0.612145                       # Inst issue rate
=======
system.cpu0.iq.int_alu_accesses            2348068399                       # Number of integer alu accesses
system.cpu0.iq.int_inst_queue_reads        8466529074                       # Number of integer instruction queue reads
system.cpu0.iq.int_inst_queue_wakeup_accesses   2307830056                       # Number of integer instruction queue wakeup accesses
system.cpu0.iq.int_inst_queue_writes       2474843439                       # Number of integer instruction queue writes
system.cpu0.iq.iqInstsAdded                2340272880                       # Number of instructions added to the IQ (excludes non-spec)
system.cpu0.iq.iqInstsIssued               2351226052                       # Number of instructions issued
system.cpu0.iq.iqNonSpecInstsAdded           11419944                       # Number of non-speculative instructions added to the IQ
system.cpu0.iq.iqSquashedInstsExamined      123135676                       # Number of squashed instructions iterated over during squash; mainly for profiling
system.cpu0.iq.iqSquashedInstsIssued           260548                       # Number of squashed instructions issued
system.cpu0.iq.iqSquashedNonSpecRemoved           473                       # Number of squashed non-spec instructions that were removed
system.cpu0.iq.iqSquashedOperandsExamined     37650495                       # Number of squashed operands that are examined and possibly removed from graph
system.cpu0.iq.issued_per_cycle::samples   3759362326                       # Number of insts issued each cycle
system.cpu0.iq.issued_per_cycle::mean        0.625432                       # Number of insts issued each cycle
system.cpu0.iq.issued_per_cycle::stdev       0.846637                       # Number of insts issued each cycle
system.cpu0.iq.issued_per_cycle::underflows            0      0.00%      0.00% # Number of insts issued each cycle
system.cpu0.iq.issued_per_cycle::0         2109581820     56.12%     56.12% # Number of insts issued each cycle
system.cpu0.iq.issued_per_cycle::1         1118234186     29.75%     85.86% # Number of insts issued each cycle
system.cpu0.iq.issued_per_cycle::2          386919287     10.29%     96.15% # Number of insts issued each cycle
system.cpu0.iq.issued_per_cycle::3          125543155      3.34%     99.49% # Number of insts issued each cycle
system.cpu0.iq.issued_per_cycle::4           15863537      0.42%     99.91% # Number of insts issued each cycle
system.cpu0.iq.issued_per_cycle::5            1194846      0.03%     99.95% # Number of insts issued each cycle
system.cpu0.iq.issued_per_cycle::6            1364034      0.04%     99.98% # Number of insts issued each cycle
system.cpu0.iq.issued_per_cycle::7             380443      0.01%     99.99% # Number of insts issued each cycle
system.cpu0.iq.issued_per_cycle::8             281018      0.01%    100.00% # Number of insts issued each cycle
system.cpu0.iq.issued_per_cycle::overflows            0      0.00%    100.00% # Number of insts issued each cycle
system.cpu0.iq.issued_per_cycle::min_value            0                       # Number of insts issued each cycle
system.cpu0.iq.issued_per_cycle::max_value            8                       # Number of insts issued each cycle
system.cpu0.iq.issued_per_cycle::total     3759362326                       # Number of insts issued each cycle
system.cpu0.iq.rate                          0.583800                       # Inst issue rate
>>>>>>> 6be7a0502e78ebf80a09b838e3e9c0d652379c93
system.cpu0.iq.vec_alu_accesses                     0                       # Number of vector alu accesses
system.cpu0.iq.vec_inst_queue_reads                 0                       # Number of vector instruction queue reads
system.cpu0.iq.vec_inst_queue_wakeup_accesses            0                       # Number of vector instruction queue wakeup accesses
system.cpu0.iq.vec_inst_queue_writes                0                       # Number of vector instruction queue writes
system.cpu0.itb.accesses                            0                       # DTB accesses
system.cpu0.itb.hits                                0                       # DTB hits
system.cpu0.itb.misses                              0                       # DTB misses
system.cpu0.itb.read_accesses                       0                       # DTB read accesses
system.cpu0.itb.read_hits                           0                       # DTB read hits
system.cpu0.itb.read_misses                         0                       # DTB read misses
system.cpu0.itb.write_accesses                      0                       # DTB write accesses
system.cpu0.itb.write_hits                          0                       # DTB write hits
system.cpu0.itb.write_misses                        0                       # DTB write misses
<<<<<<< HEAD
[...]
system.cpu1.dcache.WriteReq_avg_mshr_miss_latency::total 46269.806203                       # average WriteReq mshr miss latency
system.cpu1.dcache.LoadLockedReq_hits::.cpu1.data       137940                       # number of LoadLockedReq hits
system.cpu1.dcache.LoadLockedReq_hits::total       137940                       # number of LoadLockedReq hits
system.cpu1.dcache.LoadLockedReq_misses::.cpu1.data          833                       # number of LoadLockedReq misses
system.cpu1.dcache.LoadLockedReq_misses::total          833                       # number of LoadLockedReq misses
system.cpu1.dcache.LoadLockedReq_miss_latency::.cpu1.data     47814000                       # number of LoadLockedReq miss cycles
system.cpu1.dcache.LoadLockedReq_miss_latency::total     47814000                       # number of LoadLockedReq miss cycles
system.cpu1.dcache.LoadLockedReq_accesses::.cpu1.data       138773                       # number of LoadLockedReq accesses(hits+misses)
system.cpu1.dcache.LoadLockedReq_accesses::total       138773                       # number of LoadLockedReq accesses(hits+misses)
system.cpu1.dcache.LoadLockedReq_miss_rate::.cpu1.data     0.006003                       # miss rate for LoadLockedReq accesses
system.cpu1.dcache.LoadLockedReq_miss_rate::total     0.006003                       # miss rate for LoadLockedReq accesses
system.cpu1.dcache.LoadLockedReq_avg_miss_latency::.cpu1.data 57399.759904                       # average LoadLockedReq miss latency
system.cpu1.dcache.LoadLockedReq_avg_miss_latency::total 57399.759904                       # average LoadLockedReq miss latency
system.cpu1.dcache.LoadLockedReq_mshr_hits::.cpu1.data          294                       # number of LoadLockedReq MSHR hits
system.cpu1.dcache.LoadLockedReq_mshr_hits::total          294                       # number of LoadLockedReq MSHR hits
system.cpu1.dcache.LoadLockedReq_mshr_misses::.cpu1.data          539                       # number of LoadLockedReq MSHR misses
system.cpu1.dcache.LoadLockedReq_mshr_misses::total          539                       # number of LoadLockedReq MSHR misses
system.cpu1.dcache.LoadLockedReq_mshr_miss_latency::.cpu1.data     26251500                       # number of LoadLockedReq MSHR miss cycles
system.cpu1.dcache.LoadLockedReq_mshr_miss_latency::total     26251500                       # number of LoadLockedReq MSHR miss cycles
system.cpu1.dcache.LoadLockedReq_mshr_miss_rate::.cpu1.data     0.003884                       # mshr miss rate for LoadLockedReq accesses
system.cpu1.dcache.LoadLockedReq_mshr_miss_rate::total     0.003884                       # mshr miss rate for LoadLockedReq accesses
system.cpu1.dcache.LoadLockedReq_avg_mshr_miss_latency::.cpu1.data 48704.081633                       # average LoadLockedReq mshr miss latency
system.cpu1.dcache.LoadLockedReq_avg_mshr_miss_latency::total 48704.081633                       # average LoadLockedReq mshr miss latency
system.cpu1.dcache.StoreCondReq_hits::.cpu1.data       136362                       # number of StoreCondReq hits
system.cpu1.dcache.StoreCondReq_hits::total       136362                       # number of StoreCondReq hits
system.cpu1.dcache.StoreCondReq_misses::.cpu1.data         2165                       # number of StoreCondReq misses
system.cpu1.dcache.StoreCondReq_misses::total         2165                       # number of StoreCondReq misses
system.cpu1.dcache.StoreCondReq_miss_latency::.cpu1.data     14204500                       # number of StoreCondReq miss cycles
system.cpu1.dcache.StoreCondReq_miss_latency::total     14204500                       # number of StoreCondReq miss cycles
system.cpu1.dcache.StoreCondReq_accesses::.cpu1.data       138527                       # number of StoreCondReq accesses(hits+misses)
system.cpu1.dcache.StoreCondReq_accesses::total       138527                       # number of StoreCondReq accesses(hits+misses)
system.cpu1.dcache.StoreCondReq_miss_rate::.cpu1.data     0.015629                       # miss rate for StoreCondReq accesses
system.cpu1.dcache.StoreCondReq_miss_rate::total     0.015629                       # miss rate for StoreCondReq accesses
system.cpu1.dcache.StoreCondReq_avg_miss_latency::.cpu1.data  6560.969977                       # average StoreCondReq miss latency
system.cpu1.dcache.StoreCondReq_avg_miss_latency::total  6560.969977                       # average StoreCondReq miss latency
system.cpu1.dcache.StoreCondReq_mshr_misses::.cpu1.data         2086                       # number of StoreCondReq MSHR misses
system.cpu1.dcache.StoreCondReq_mshr_misses::total         2086                       # number of StoreCondReq MSHR misses
system.cpu1.dcache.StoreCondReq_mshr_miss_latency::.cpu1.data     12128500                       # number of StoreCondReq MSHR miss cycles
system.cpu1.dcache.StoreCondReq_mshr_miss_latency::total     12128500                       # number of StoreCondReq MSHR miss cycles
system.cpu1.dcache.StoreCondReq_mshr_miss_rate::.cpu1.data     0.015058                       # mshr miss rate for StoreCondReq accesses
system.cpu1.dcache.StoreCondReq_mshr_miss_rate::total     0.015058                       # mshr miss rate for StoreCondReq accesses
system.cpu1.dcache.StoreCondReq_avg_mshr_miss_latency::.cpu1.data  5814.237776                       # average StoreCondReq mshr miss latency
system.cpu1.dcache.StoreCondReq_avg_mshr_miss_latency::total  5814.237776                       # average StoreCondReq mshr miss latency
system.cpu1.dcache.StoreCondFailReq_miss_latency::.cpu1.data       218000                       # number of StoreCondFailReq miss cycles
system.cpu1.dcache.StoreCondFailReq_miss_latency::total       218000                       # number of StoreCondFailReq miss cycles
system.cpu1.dcache.StoreCondFailReq_avg_miss_latency::.cpu1.data          inf                       # average StoreCondFailReq miss latency
system.cpu1.dcache.StoreCondFailReq_avg_miss_latency::total          inf                       # average StoreCondFailReq miss latency
system.cpu1.dcache.StoreCondFailReq_mshr_miss_latency::.cpu1.data       208000                       # number of StoreCondFailReq MSHR miss cycles
system.cpu1.dcache.StoreCondFailReq_mshr_miss_latency::total       208000                       # number of StoreCondFailReq MSHR miss cycles
system.cpu1.dcache.StoreCondFailReq_avg_mshr_miss_latency::.cpu1.data          inf                       # average StoreCondFailReq mshr miss latency
system.cpu1.dcache.StoreCondFailReq_avg_mshr_miss_latency::total          inf                       # average StoreCondFailReq mshr miss latency
system.cpu1.dcache.SwapReq_hits::.cpu1.data         1856                       # number of SwapReq hits
system.cpu1.dcache.SwapReq_hits::total           1856                       # number of SwapReq hits
system.cpu1.dcache.SwapReq_misses::.cpu1.data         7072                       # number of SwapReq misses
system.cpu1.dcache.SwapReq_misses::total         7072                       # number of SwapReq misses
system.cpu1.dcache.SwapReq_miss_latency::.cpu1.data    155945499                       # number of SwapReq miss cycles
system.cpu1.dcache.SwapReq_miss_latency::total    155945499                       # number of SwapReq miss cycles
system.cpu1.dcache.SwapReq_accesses::.cpu1.data         8928                       # number of SwapReq accesses(hits+misses)
system.cpu1.dcache.SwapReq_accesses::total         8928                       # number of SwapReq accesses(hits+misses)
system.cpu1.dcache.SwapReq_miss_rate::.cpu1.data     0.792115                       # miss rate for SwapReq accesses
system.cpu1.dcache.SwapReq_miss_rate::total     0.792115                       # miss rate for SwapReq accesses
system.cpu1.dcache.SwapReq_avg_miss_latency::.cpu1.data 22051.116940                       # average SwapReq miss latency
system.cpu1.dcache.SwapReq_avg_miss_latency::total 22051.116940                       # average SwapReq miss latency
system.cpu1.dcache.SwapReq_mshr_hits::.cpu1.data            3                       # number of SwapReq MSHR hits
system.cpu1.dcache.SwapReq_mshr_hits::total            3                       # number of SwapReq MSHR hits
system.cpu1.dcache.SwapReq_mshr_misses::.cpu1.data         7069                       # number of SwapReq MSHR misses
system.cpu1.dcache.SwapReq_mshr_misses::total         7069                       # number of SwapReq MSHR misses
system.cpu1.dcache.SwapReq_mshr_miss_latency::.cpu1.data    148866499                       # number of SwapReq MSHR miss cycles
system.cpu1.dcache.SwapReq_mshr_miss_latency::total    148866499                       # number of SwapReq MSHR miss cycles
system.cpu1.dcache.SwapReq_mshr_miss_rate::.cpu1.data     0.791779                       # mshr miss rate for SwapReq accesses
system.cpu1.dcache.SwapReq_mshr_miss_rate::total     0.791779                       # mshr miss rate for SwapReq accesses
system.cpu1.dcache.SwapReq_avg_mshr_miss_latency::.cpu1.data 21059.060546                       # average SwapReq mshr miss latency
system.cpu1.dcache.SwapReq_avg_mshr_miss_latency::total 21059.060546                       # average SwapReq mshr miss latency
system.cpu1.dcache.tags.pwrStateResidencyTicks::UNDEFINED 222847859500                       # Cumulative time (in ticks) in various power states
system.cpu1.dcache.tags.tagsinuse           31.597246                       # Cycle average of tags in use
system.cpu1.dcache.tags.total_refs           50564506                       # Total number of references to valid blocks.
system.cpu1.dcache.tags.sampled_refs          5443214                       # Sample count of references to valid blocks.
system.cpu1.dcache.tags.avg_refs             9.289458                       # Average number of references to valid blocks.
system.cpu1.dcache.tags.warmup_cycle                0                       # Cycle when the warmup percentage was hit.
system.cpu1.dcache.tags.occ_blocks::.cpu1.data    31.597246                       # Average occupied blocks per requestor
system.cpu1.dcache.tags.occ_percent::.cpu1.data     0.987414                       # Average percentage of cache occupancy
system.cpu1.dcache.tags.occ_percent::total     0.987414                       # Average percentage of cache occupancy
system.cpu1.dcache.tags.occ_task_id_blocks::1024           28                       # Occupied blocks per task id
system.cpu1.dcache.tags.age_task_id_blocks_1024::1           28                       # Occupied blocks per task id
system.cpu1.dcache.tags.occ_task_id_percent::1024     0.875000                       # Percentage of cache occupancy per task id
system.cpu1.dcache.tags.tag_accesses        132725769                       # Number of tag accesses
system.cpu1.dcache.tags.data_accesses       132725769                       # Number of data accesses
system.cpu_clk_domain.clock                       500                       # Clock period in ticks
system.tol2bus.pwrStateResidencyTicks::UNDEFINED 222847859500                       # Cumulative time (in ticks) in various power states
system.tol2bus.trans_dist::ReadResp          10871158                       # Transaction distribution
system.tol2bus.trans_dist::WritebackDirty      2082877                       # Transaction distribution
system.tol2bus.trans_dist::WritebackClean      9892966                       # Transaction distribution
system.tol2bus.trans_dist::CleanEvict        24049917                       # Transaction distribution
system.tol2bus.trans_dist::HardPFReq         18871366                       # Transaction distribution
system.tol2bus.trans_dist::HardPFResp               5                       # Transaction distribution
system.tol2bus.trans_dist::UpgradeReq          118740                       # Transaction distribution
system.tol2bus.trans_dist::SCUpgradeReq          4377                       # Transaction distribution
system.tol2bus.trans_dist::UpgradeResp         123117                       # Transaction distribution
system.tol2bus.trans_dist::SCUpgradeFailReq           19                       # Transaction distribution
system.tol2bus.trans_dist::UpgradeFailResp           19                       # Transaction distribution
system.tol2bus.trans_dist::ReadExReq           412883                       # Transaction distribution
system.tol2bus.trans_dist::ReadExResp          412884                       # Transaction distribution
system.tol2bus.trans_dist::ReadCleanReq        143378                       # Transaction distribution
system.tol2bus.trans_dist::ReadSharedReq     10727779                       # Transaction distribution
system.tol2bus.trans_dist::InvalidateReq         1592                       # Transaction distribution
system.tol2bus.trans_dist::InvalidateResp         1592                       # Transaction distribution
system.tol2bus.pkt_count_system.cpu0.icache.mem_side::system.l2.cpu_side       357101                       # Packet count per connected master and slave (bytes)
system.tol2bus.pkt_count_system.cpu0.dcache.mem_side::system.l2.cpu_side     17004668                       # Packet count per connected master and slave (bytes)
system.tol2bus.pkt_count_system.cpu1.icache.mem_side::system.l2.cpu_side        72969                       # Packet count per connected master and slave (bytes)
system.tol2bus.pkt_count_system.cpu1.dcache.mem_side::system.l2.cpu_side     16236252                       # Packet count per connected master and slave (bytes)
system.tol2bus.pkt_count::total              33670990                       # Packet count per connected master and slave (bytes)
system.tol2bus.pkt_size_system.cpu0.icache.mem_side::system.l2.cpu_side     15234944                       # Cumulative packet size per connected master and slave (bytes)
system.tol2bus.pkt_size_system.cpu0.dcache.mem_side::system.l2.cpu_side    718709312                       # Cumulative packet size per connected master and slave (bytes)
system.tol2bus.pkt_size_system.cpu1.icache.mem_side::system.l2.cpu_side      3113344                       # Cumulative packet size per connected master and slave (bytes)
system.tol2bus.pkt_size_system.cpu1.dcache.mem_side::system.l2.cpu_side    686022528                       # Cumulative packet size per connected master and slave (bytes)
system.tol2bus.pkt_size::total             1423080128                       # Cumulative packet size per connected master and slave (bytes)
system.tol2bus.snoops                        44043684                       # Total snoops (count)
system.tol2bus.snoopTraffic                  65554368                       # Total snoop traffic (bytes)
system.tol2bus.snoop_fanout::samples         55186595                       # Request fanout histogram
system.tol2bus.snoop_fanout::mean            0.185422                       # Request fanout histogram
system.tol2bus.snoop_fanout::stdev           0.412858                       # Request fanout histogram
system.tol2bus.snoop_fanout::underflows             0      0.00%      0.00% # Request fanout histogram
system.tol2bus.snoop_fanout::0               45489045     82.43%     82.43% # Request fanout histogram
system.tol2bus.snoop_fanout::1                9162616     16.60%     99.03% # Request fanout histogram
system.tol2bus.snoop_fanout::2                 534591      0.97%    100.00% # Request fanout histogram
system.tol2bus.snoop_fanout::3                    343      0.00%    100.00% # Request fanout histogram
system.tol2bus.snoop_fanout::4                      0      0.00%    100.00% # Request fanout histogram
system.tol2bus.snoop_fanout::5                      0      0.00%    100.00% # Request fanout histogram
>>>>>>> 6be7a0502e78ebf80a09b838e3e9c0d652379c93
system.tol2bus.snoop_fanout::6                      0      0.00%    100.00% # Request fanout histogram
system.tol2bus.snoop_fanout::7                      0      0.00%    100.00% # Request fanout histogram
system.tol2bus.snoop_fanout::8                      0      0.00%    100.00% # Request fanout histogram
system.tol2bus.snoop_fanout::overflows              0      0.00%    100.00% # Request fanout histogram
system.tol2bus.snoop_fanout::min_value              0                       # Request fanout histogram
<<<<<<< HEAD
system.tol2bus.snoop_fanout::max_value              5                       # Request fanout histogram
system.tol2bus.snoop_fanout::total           53876803                       # Request fanout histogram
system.tol2bus.reqLayer0.occupancy        23279987965                       # Layer occupancy (ticks)
system.tol2bus.reqLayer0.utilization             16.4                       # Layer utilization (%)
system.tol2bus.respLayer5.occupancy        4064881745                       # Layer occupancy (ticks)
system.tol2bus.respLayer5.utilization             2.9                       # Layer utilization (%)
system.tol2bus.respLayer4.occupancy          40251112                       # Layer occupancy (ticks)
system.tol2bus.respLayer4.utilization             0.0                       # Layer utilization (%)
system.tol2bus.respLayer7.occupancy        4069143975                       # Layer occupancy (ticks)
system.tol2bus.respLayer7.utilization             2.9                       # Layer utilization (%)
system.tol2bus.respLayer6.occupancy          40097551                       # Layer occupancy (ticks)
system.tol2bus.respLayer6.utilization             0.0                       # Layer utilization (%)
system.tol2bus.respLayer1.occupancy        4353157468                       # Layer occupancy (ticks)
system.tol2bus.respLayer1.utilization             3.1                       # Layer utilization (%)
system.tol2bus.respLayer0.occupancy         183885822                       # Layer occupancy (ticks)
system.tol2bus.respLayer0.utilization             0.1                       # Layer utilization (%)
system.tol2bus.respLayer3.occupancy        4115001288                       # Layer occupancy (ticks)
system.tol2bus.respLayer3.utilization             2.9                       # Layer utilization (%)
system.tol2bus.respLayer2.occupancy          40613558                       # Layer occupancy (ticks)
system.tol2bus.respLayer2.utilization             0.0                       # Layer utilization (%)
system.tol2bus.snoopLayer0.occupancy            21015                       # Layer occupancy (ticks)
=======
system.tol2bus.snoop_fanout::max_value              3                       # Request fanout histogram
system.tol2bus.snoop_fanout::total           55186595                       # Request fanout histogram
system.tol2bus.reqLayer0.occupancy        22388561105                       # Layer occupancy (ticks)
system.tol2bus.reqLayer0.utilization             10.0                       # Layer utilization (%)
system.tol2bus.respLayer1.occupancy        8601330770                       # Layer occupancy (ticks)
system.tol2bus.respLayer1.utilization             3.9                       # Layer utilization (%)
system.tol2bus.respLayer0.occupancy         178705255                       # Layer occupancy (ticks)
system.tol2bus.respLayer0.utilization             0.1                       # Layer utilization (%)
system.tol2bus.respLayer3.occupancy        8218768846                       # Layer occupancy (ticks)
system.tol2bus.respLayer3.utilization             3.7                       # Layer utilization (%)
system.tol2bus.respLayer2.occupancy          36749968                       # Layer occupancy (ticks)
system.tol2bus.respLayer2.utilization             0.0                       # Layer utilization (%)
system.tol2bus.snoopLayer0.occupancy             7504                       # Layer occupancy (ticks)
>>>>>>> 6be7a0502e78ebf80a09b838e3e9c0d652379c93
system.tol2bus.snoopLayer0.utilization            0.0                       # Layer utilization (%)

---------- End Simulation Statistics   ----------
