
---------- Begin Simulation Statistics ----------
final_tick                                 1347695000                       # Number of ticks from beginning of simulation (restored from checkpoints and never reset)
host_inst_rate                                  81130                       # Simulator instruction rate (inst/s)
host_mem_usage                                 738048                       # Number of bytes of host memory used
host_op_rate                                    81306                       # Simulator op (including micro ops) rate (op/s)
host_seconds                                    14.14                       # Real time elapsed on the host
host_tick_rate                               95335354                       # Simulator tick rate (ticks/s)
sim_freq                                 1000000000000                       # Frequency of simulated ticks
sim_insts                                     1146867                       # Number of instructions simulated
sim_ops                                       1149373                       # Number of ops (including micro ops) simulated
sim_seconds                                  0.001348                       # Number of seconds simulated
sim_ticks                                  1347695000                       # Number of ticks simulated
system.cpu0.branchPred.BTBCorrect                   0                       # Number of correct BTB predictions (this stat may not work properly.
system.cpu0.branchPred.BTBHitPct            55.441942                       # BTB Hit Percentage
system.cpu0.branchPred.BTBHits                 109255                       # Number of BTB hits
system.cpu0.branchPred.BTBLookups              197062                       # Number of BTB lookups
system.cpu0.branchPred.RASInCorrect                 0                       # Number of incorrect RAS predictions.
system.cpu0.branchPred.condIncorrect            34302                       # Number of conditional branches incorrect
system.cpu0.branchPred.condPredicted           143180                       # Number of conditional branches predicted
system.cpu0.branchPred.indirectHits             36474                       # Number of indirect target hits.
system.cpu0.branchPred.indirectLookups          42269                       # Number of indirect predictor lookups.
system.cpu0.branchPred.indirectMisses            5795                       # Number of indirect misses.
system.cpu0.branchPred.lookups                 227415                       # Number of BP lookups
system.cpu0.branchPred.usedRAS                      0                       # Number of times the RAS was used to get a target.
system.cpu0.branchPredindirectMispredicted         5512                       # Number of mispredicted indirect branches.
system.cpu0.commit.amos                           682                       # Number of atomic instructions committed
system.cpu0.commit.branchMispredicts            21257                       # The number of times a branch was mispredicted
system.cpu0.commit.branches                    196518                       # Number of branches committed
system.cpu0.commit.bw_lim_events                27041                       # number cycles where commit BW limit reached
system.cpu0.commit.commitNonSpecStalls           3773                       # The number of times commit has been forced to stall to communicate backwards
system.cpu0.commit.commitSquashedInsts          65637                       # The number of squashed insts skipped by commit
system.cpu0.commit.committedInsts             1055725                       # Number of instructions committed
system.cpu0.commit.committedOps               1056353                       # Number of ops (including micro ops) committed
system.cpu0.commit.committed_per_cycle::samples      2206923                       # Number of insts commited each cycle
system.cpu0.commit.committed_per_cycle::mean     0.478654                       # Number of insts commited each cycle
system.cpu0.commit.committed_per_cycle::stdev     1.247698                       # Number of insts commited each cycle
system.cpu0.commit.committed_per_cycle::underflows            0      0.00%      0.00% # Number of insts commited each cycle
system.cpu0.commit.committed_per_cycle::0      1690182     76.59%     76.59% # Number of insts commited each cycle
system.cpu0.commit.committed_per_cycle::1       326832     14.81%     91.39% # Number of insts commited each cycle
system.cpu0.commit.committed_per_cycle::2        57526      2.61%     94.00% # Number of insts commited each cycle
system.cpu0.commit.committed_per_cycle::3        64290      2.91%     96.91% # Number of insts commited each cycle
system.cpu0.commit.committed_per_cycle::4        18197      0.82%     97.74% # Number of insts commited each cycle
system.cpu0.commit.committed_per_cycle::5        10781      0.49%     98.23% # Number of insts commited each cycle
system.cpu0.commit.committed_per_cycle::6         5940      0.27%     98.50% # Number of insts commited each cycle
system.cpu0.commit.committed_per_cycle::7         6134      0.28%     98.77% # Number of insts commited each cycle
system.cpu0.commit.committed_per_cycle::8        27041      1.23%    100.00% # Number of insts commited each cycle
system.cpu0.commit.committed_per_cycle::overflows            0      0.00%    100.00% # Number of insts commited each cycle
system.cpu0.commit.committed_per_cycle::min_value            0                       # Number of insts commited each cycle
system.cpu0.commit.committed_per_cycle::max_value            8                       # Number of insts commited each cycle
system.cpu0.commit.committed_per_cycle::total      2206923                       # Number of insts commited each cycle
system.cpu0.commit.fp_insts                        65                       # Number of committed floating point instructions.
system.cpu0.commit.function_calls               60858                       # Number of function calls committed.
system.cpu0.commit.int_insts                  1044329                       # Number of committed integer instructions.
system.cpu0.commit.loads                       294038                       # Number of loads committed
system.cpu0.commit.membars                       2280                       # Number of memory barriers committed
system.cpu0.commit.op_class_0::No_OpClass         2289      0.22%      0.22% # Class of committed instruction
system.cpu0.commit.op_class_0::IntAlu          554352     52.48%     52.69% # Class of committed instruction
system.cpu0.commit.op_class_0::IntMult            910      0.09%     52.78% # Class of committed instruction
system.cpu0.commit.op_class_0::IntDiv             596      0.06%     52.84% # Class of committed instruction
system.cpu0.commit.op_class_0::FloatAdd             0      0.00%     52.84% # Class of committed instruction
system.cpu0.commit.op_class_0::FloatCmp             6      0.00%     52.84% # Class of committed instruction
system.cpu0.commit.op_class_0::FloatCvt            16      0.00%     52.84% # Class of committed instruction
system.cpu0.commit.op_class_0::FloatMult            0      0.00%     52.84% # Class of committed instruction
system.cpu0.commit.op_class_0::FloatMultAcc            0      0.00%     52.84% # Class of committed instruction
system.cpu0.commit.op_class_0::FloatDiv             2      0.00%     52.84% # Class of committed instruction
system.cpu0.commit.op_class_0::FloatMisc            6      0.00%     52.84% # Class of committed instruction
system.cpu0.commit.op_class_0::FloatSqrt            0      0.00%     52.84% # Class of committed instruction
system.cpu0.commit.op_class_0::SimdAdd              0      0.00%     52.84% # Class of committed instruction
system.cpu0.commit.op_class_0::SimdAddAcc            0      0.00%     52.84% # Class of committed instruction
system.cpu0.commit.op_class_0::SimdAlu              0      0.00%     52.84% # Class of committed instruction
system.cpu0.commit.op_class_0::SimdCmp              0      0.00%     52.84% # Class of committed instruction
system.cpu0.commit.op_class_0::SimdCvt              0      0.00%     52.84% # Class of committed instruction
system.cpu0.commit.op_class_0::SimdMisc             0      0.00%     52.84% # Class of committed instruction
system.cpu0.commit.op_class_0::SimdMult             0      0.00%     52.84% # Class of committed instruction
system.cpu0.commit.op_class_0::SimdMultAcc            0      0.00%     52.84% # Class of committed instruction
system.cpu0.commit.op_class_0::SimdShift            0      0.00%     52.84% # Class of committed instruction
system.cpu0.commit.op_class_0::SimdShiftAcc            0      0.00%     52.84% # Class of committed instruction
system.cpu0.commit.op_class_0::SimdDiv              0      0.00%     52.84% # Class of committed instruction
system.cpu0.commit.op_class_0::SimdSqrt             0      0.00%     52.84% # Class of committed instruction
system.cpu0.commit.op_class_0::SimdFloatAdd            0      0.00%     52.84% # Class of committed instruction
system.cpu0.commit.op_class_0::SimdFloatAlu            0      0.00%     52.84% # Class of committed instruction
system.cpu0.commit.op_class_0::SimdFloatCmp            0      0.00%     52.84% # Class of committed instruction
system.cpu0.commit.op_class_0::SimdFloatCvt            0      0.00%     52.84% # Class of committed instruction
system.cpu0.commit.op_class_0::SimdFloatDiv            0      0.00%     52.84% # Class of committed instruction
system.cpu0.commit.op_class_0::SimdFloatMisc            0      0.00%     52.84% # Class of committed instruction
system.cpu0.commit.op_class_0::SimdFloatMult            0      0.00%     52.84% # Class of committed instruction
system.cpu0.commit.op_class_0::SimdFloatMultAcc            0      0.00%     52.84% # Class of committed instruction
system.cpu0.commit.op_class_0::SimdFloatSqrt            0      0.00%     52.84% # Class of committed instruction
system.cpu0.commit.op_class_0::SimdReduceAdd            0      0.00%     52.84% # Class of committed instruction
system.cpu0.commit.op_class_0::SimdReduceAlu            0      0.00%     52.84% # Class of committed instruction
system.cpu0.commit.op_class_0::SimdReduceCmp            0      0.00%     52.84% # Class of committed instruction
system.cpu0.commit.op_class_0::SimdFloatReduceAdd            0      0.00%     52.84% # Class of committed instruction
system.cpu0.commit.op_class_0::SimdFloatReduceCmp            0      0.00%     52.84% # Class of committed instruction
system.cpu0.commit.op_class_0::SimdAes              0      0.00%     52.84% # Class of committed instruction
system.cpu0.commit.op_class_0::SimdAesMix            0      0.00%     52.84% # Class of committed instruction
system.cpu0.commit.op_class_0::SimdSha1Hash            0      0.00%     52.84% # Class of committed instruction
system.cpu0.commit.op_class_0::SimdSha1Hash2            0      0.00%     52.84% # Class of committed instruction
system.cpu0.commit.op_class_0::SimdSha256Hash            0      0.00%     52.84% # Class of committed instruction
system.cpu0.commit.op_class_0::SimdSha256Hash2            0      0.00%     52.84% # Class of committed instruction
system.cpu0.commit.op_class_0::SimdShaSigma2            0      0.00%     52.84% # Class of committed instruction
system.cpu0.commit.op_class_0::SimdShaSigma3            0      0.00%     52.84% # Class of committed instruction
system.cpu0.commit.op_class_0::SimdPredAlu            0      0.00%     52.84% # Class of committed instruction
system.cpu0.commit.op_class_0::MemRead         294708     27.90%     80.74% # Class of committed instruction
system.cpu0.commit.op_class_0::MemWrite        203433     19.26%    100.00% # Class of committed instruction
system.cpu0.commit.op_class_0::FloatMemRead           12      0.00%    100.00% # Class of committed instruction
system.cpu0.commit.op_class_0::FloatMemWrite           23      0.00%    100.00% # Class of committed instruction
system.cpu0.commit.op_class_0::IprAccess            0      0.00%    100.00% # Class of committed instruction
system.cpu0.commit.op_class_0::InstPrefetch            0      0.00%    100.00% # Class of committed instruction
system.cpu0.commit.op_class_0::total          1056353                       # Class of committed instruction
system.cpu0.commit.refs                        498176                       # Number of memory references committed
system.cpu0.commit.swp_count                        0                       # Number of s/w prefetches committed
system.cpu0.commit.vec_insts                        0                       # Number of committed Vector instructions.
system.cpu0.committedInsts                    1055725                       # Number of Instructions Simulated
system.cpu0.committedOps                      1056353                       # Number of Ops (including micro ops) Simulated
system.cpu0.cpi                              2.550794                       # CPI: Cycles Per Instruction
system.cpu0.cpi_total                        2.550794                       # CPI: Total CPI of All Threads
system.cpu0.decode.BlockedCycles                46958                       # Number of cycles decode is blocked
system.cpu0.decode.BranchMispred                13165                       # Number of times decode detected a branch misprediction
system.cpu0.decode.BranchResolved              106868                       # Number of times decode resolved a branch
system.cpu0.decode.DecodedInsts               1173637                       # Number of instructions handled by decode
system.cpu0.decode.IdleCycles                 1276457                       # Number of cycles decode is idle
system.cpu0.decode.RunCycles                   885243                       # Number of cycles decode is running
system.cpu0.decode.SquashCycles                 21564                       # Number of cycles decode is squashing
system.cpu0.decode.SquashedInsts                19554                       # Number of squashed instructions handled by decode
system.cpu0.decode.UnblockCycles                 2007                       # Number of cycles decode is unblocking
system.cpu0.dtb.accesses                            0                       # DTB accesses
system.cpu0.dtb.hits                                0                       # DTB hits
system.cpu0.dtb.misses                              0                       # DTB misses
system.cpu0.dtb.read_accesses                       0                       # DTB read accesses
system.cpu0.dtb.read_hits                           0                       # DTB read hits
system.cpu0.dtb.read_misses                         0                       # DTB read misses
system.cpu0.dtb.write_accesses                      0                       # DTB write accesses
system.cpu0.dtb.write_hits                          0                       # DTB write hits
system.cpu0.dtb.write_misses                        0                       # DTB write misses
system.cpu0.fetch.Branches                     227415                       # Number of branches that fetch encountered
system.cpu0.fetch.CacheLines                   182579                       # Number of cache lines fetched
system.cpu0.fetch.Cycles                       936765                       # Number of cycles fetch has run and was not squashing or blocked
system.cpu0.fetch.IcacheSquashes                11009                       # Number of outstanding Icache misses that were squashed
system.cpu0.fetch.IcacheWaitRetryStallCycles           81                       # Number of stall cycles due to full MSHR
system.cpu0.fetch.Insts                       1217424                       # Number of instructions fetch has processed
system.cpu0.fetch.MiscStallCycles                  48                       # Number of cycles fetch has spent waiting on interrupts, or bad addresses, or out of MSHRs
system.cpu0.fetch.PendingTrapStallCycles          108                       # Number of stall cycles due to pending traps
system.cpu0.fetch.SquashCycles                  69252                       # Number of cycles fetch has spent squashing
system.cpu0.fetch.branchRate                 0.084449                       # Number of branch fetches per cycle
system.cpu0.fetch.icacheStallCycles           1260601                       # Number of cycles fetch is stalled on an Icache miss
system.cpu0.fetch.predictedBranches            145729                       # Number of branches that fetch has predicted taken
system.cpu0.fetch.rate                       0.452080                       # Number of inst fetches per cycle
system.cpu0.fetch.rateDist::samples           2232229                       # Number of instructions fetched each cycle (Total)
system.cpu0.fetch.rateDist::mean             0.545857                       # Number of instructions fetched each cycle (Total)
system.cpu0.fetch.rateDist::stdev            0.845134                       # Number of instructions fetched each cycle (Total)
system.cpu0.fetch.rateDist::underflows              0      0.00%      0.00% # Number of instructions fetched each cycle (Total)
system.cpu0.fetch.rateDist::0                 1316988     59.00%     59.00% # Number of instructions fetched each cycle (Total)
system.cpu0.fetch.rateDist::1                  734652     32.91%     91.91% # Number of instructions fetched each cycle (Total)
system.cpu0.fetch.rateDist::2                  109240      4.89%     96.80% # Number of instructions fetched each cycle (Total)
system.cpu0.fetch.rateDist::3                   43854      1.96%     98.77% # Number of instructions fetched each cycle (Total)
system.cpu0.fetch.rateDist::4                   15171      0.68%     99.45% # Number of instructions fetched each cycle (Total)
system.cpu0.fetch.rateDist::5                    6947      0.31%     99.76% # Number of instructions fetched each cycle (Total)
system.cpu0.fetch.rateDist::6                    1207      0.05%     99.81% # Number of instructions fetched each cycle (Total)
system.cpu0.fetch.rateDist::7                    2237      0.10%     99.91% # Number of instructions fetched each cycle (Total)
system.cpu0.fetch.rateDist::8                    1933      0.09%    100.00% # Number of instructions fetched each cycle (Total)
system.cpu0.fetch.rateDist::overflows               0      0.00%    100.00% # Number of instructions fetched each cycle (Total)
system.cpu0.fetch.rateDist::min_value               0                       # Number of instructions fetched each cycle (Total)
system.cpu0.fetch.rateDist::max_value               8                       # Number of instructions fetched each cycle (Total)
system.cpu0.fetch.rateDist::total             2232229                       # Number of instructions fetched each cycle (Total)
system.cpu0.fp_regfile_reads                       56                       # number of floating regfile reads
system.cpu0.fp_regfile_writes                      32                       # number of floating regfile writes
system.cpu0.idleCycles                         460708                       # Total number of cycles that the CPU has spent unscheduled due to idling
system.cpu0.iew.branchMispredicts               21630                       # Number of branch mispredicts detected at execute
system.cpu0.iew.exec_branches                  204596                       # Number of branches executed
system.cpu0.iew.exec_nop                            0                       # number of nop insts executed
system.cpu0.iew.exec_rate                    0.408879                       # Inst execution rate
system.cpu0.iew.exec_refs                      517340                       # number of memory reference insts executed
system.cpu0.iew.exec_stores                    208423                       # Number of stores executed
system.cpu0.iew.exec_swp                            0                       # number of swp insts executed
system.cpu0.iew.iewBlockCycles                  11853                       # Number of cycles IEW is blocking
system.cpu0.iew.iewDispLoadInsts               310878                       # Number of dispatched load instructions
system.cpu0.iew.iewDispNonSpecInsts              1650                       # Number of dispatched non-speculative instructions
system.cpu0.iew.iewDispSquashedInsts            14264                       # Number of squashed instructions skipped by dispatch
system.cpu0.iew.iewDispStoreInsts              211789                       # Number of dispatched store instructions
system.cpu0.iew.iewDispatchedInsts            1121978                       # Number of instructions dispatched to IQ
system.cpu0.iew.iewExecLoadInsts               308917                       # Number of load instructions executed
system.cpu0.iew.iewExecSquashedInsts            14389                       # Number of squashed instructions skipped in execute
system.cpu0.iew.iewExecutedInsts              1101085                       # Number of executed instructions
system.cpu0.iew.iewIQFullEvents                   276                       # Number of times the IQ has become full, causing a stall
system.cpu0.iew.iewIdleCycles                       0                       # Number of cycles IEW is idle
system.cpu0.iew.iewLSQFullEvents                 1703                       # Number of times the LSQ has become full, causing a stall
system.cpu0.iew.iewSquashCycles                 21564                       # Number of cycles IEW is squashing
system.cpu0.iew.iewUnblockCycles                 2287                       # Number of cycles IEW is unblocking
system.cpu0.iew.lsq.thread0.blockedLoads            0                       # Number of blocked loads due to partial load-store forwarding
system.cpu0.iew.lsq.thread0.cacheBlocked          969                       # Number of times an access to memory failed due to the cache being blocked
system.cpu0.iew.lsq.thread0.forwLoads           18301                       # Number of loads that had data forwarded from stores
system.cpu0.iew.lsq.thread0.ignoredResponses           81                       # Number of memory responses ignored because the instruction is squashed
system.cpu0.iew.lsq.thread0.invAddrLoads            0                       # Number of loads ignored due to an invalid address
system.cpu0.iew.lsq.thread0.invAddrSwpfs            0                       # Number of software prefetches ignored due to an invalid address
system.cpu0.iew.lsq.thread0.memOrderViolation           45                       # Number of memory ordering violations
system.cpu0.iew.lsq.thread0.rescheduledLoads         1558                       # Number of loads that were rescheduled
system.cpu0.iew.lsq.thread0.squashedLoads        16840                       # Number of loads squashed
system.cpu0.iew.lsq.thread0.squashedStores         7651                       # Number of stores squashed
system.cpu0.iew.memOrderViolationEvents            45                       # Number of memory order violations
system.cpu0.iew.predictedNotTakenIncorrect         6334                       # Number of branches that were predicted not taken incorrectly
system.cpu0.iew.predictedTakenIncorrect         15296                       # Number of branches that were predicted taken incorrectly
system.cpu0.iew.wb_consumers                   373821                       # num instructions consuming a value
system.cpu0.iew.wb_count                      1092858                       # cumulative count of insts written-back
system.cpu0.iew.wb_fanout                    0.835954                       # average fanout of values written-back
system.cpu0.iew.wb_producers                   312497                       # num instructions producing a value
system.cpu0.iew.wb_rate                      0.405824                       # insts written-back per cycle
system.cpu0.iew.wb_sent                       1093439                       # cumulative count of insts sent to commit
system.cpu0.int_regfile_reads                 1324599                       # number of integer regfile reads
system.cpu0.int_regfile_writes                 711039                       # number of integer regfile writes
system.cpu0.ipc                              0.392035                       # IPC: Instructions Per Cycle
system.cpu0.ipc_total                        0.392035                       # IPC: Total IPC of All Threads
system.cpu0.iq.FU_type_0::No_OpClass             2576      0.23%      0.23% # Type of FU issued
system.cpu0.iq.FU_type_0::IntAlu               589560     52.85%     53.08% # Type of FU issued
system.cpu0.iq.FU_type_0::IntMult                 950      0.09%     53.17% # Type of FU issued
system.cpu0.iq.FU_type_0::IntDiv                  597      0.05%     53.22% # Type of FU issued
system.cpu0.iq.FU_type_0::FloatAdd                  0      0.00%     53.22% # Type of FU issued
system.cpu0.iq.FU_type_0::FloatCmp                  6      0.00%     53.22% # Type of FU issued
system.cpu0.iq.FU_type_0::FloatCvt                 16      0.00%     53.22% # Type of FU issued
system.cpu0.iq.FU_type_0::FloatMult                 0      0.00%     53.22% # Type of FU issued
system.cpu0.iq.FU_type_0::FloatMultAcc              0      0.00%     53.22% # Type of FU issued
system.cpu0.iq.FU_type_0::FloatDiv                  2      0.00%     53.22% # Type of FU issued
system.cpu0.iq.FU_type_0::FloatMisc                 6      0.00%     53.23% # Type of FU issued
system.cpu0.iq.FU_type_0::FloatSqrt                 0      0.00%     53.23% # Type of FU issued
system.cpu0.iq.FU_type_0::SimdAdd                   0      0.00%     53.23% # Type of FU issued
system.cpu0.iq.FU_type_0::SimdAddAcc                0      0.00%     53.23% # Type of FU issued
system.cpu0.iq.FU_type_0::SimdAlu                   0      0.00%     53.23% # Type of FU issued
system.cpu0.iq.FU_type_0::SimdCmp                   0      0.00%     53.23% # Type of FU issued
system.cpu0.iq.FU_type_0::SimdCvt                   0      0.00%     53.23% # Type of FU issued
system.cpu0.iq.FU_type_0::SimdMisc                  0      0.00%     53.23% # Type of FU issued
system.cpu0.iq.FU_type_0::SimdMult                  0      0.00%     53.23% # Type of FU issued
system.cpu0.iq.FU_type_0::SimdMultAcc               0      0.00%     53.23% # Type of FU issued
system.cpu0.iq.FU_type_0::SimdShift                 0      0.00%     53.23% # Type of FU issued
system.cpu0.iq.FU_type_0::SimdShiftAcc              0      0.00%     53.23% # Type of FU issued
system.cpu0.iq.FU_type_0::SimdDiv                   0      0.00%     53.23% # Type of FU issued
system.cpu0.iq.FU_type_0::SimdSqrt                  0      0.00%     53.23% # Type of FU issued
system.cpu0.iq.FU_type_0::SimdFloatAdd              0      0.00%     53.23% # Type of FU issued
system.cpu0.iq.FU_type_0::SimdFloatAlu              0      0.00%     53.23% # Type of FU issued
system.cpu0.iq.FU_type_0::SimdFloatCmp              0      0.00%     53.23% # Type of FU issued
system.cpu0.iq.FU_type_0::SimdFloatCvt              0      0.00%     53.23% # Type of FU issued
system.cpu0.iq.FU_type_0::SimdFloatDiv              0      0.00%     53.23% # Type of FU issued
system.cpu0.iq.FU_type_0::SimdFloatMisc             0      0.00%     53.23% # Type of FU issued
system.cpu0.iq.FU_type_0::SimdFloatMult             0      0.00%     53.23% # Type of FU issued
system.cpu0.iq.FU_type_0::SimdFloatMultAcc            0      0.00%     53.23% # Type of FU issued
system.cpu0.iq.FU_type_0::SimdFloatSqrt             0      0.00%     53.23% # Type of FU issued
system.cpu0.iq.FU_type_0::SimdReduceAdd             0      0.00%     53.23% # Type of FU issued
system.cpu0.iq.FU_type_0::SimdReduceAlu             0      0.00%     53.23% # Type of FU issued
system.cpu0.iq.FU_type_0::SimdReduceCmp             0      0.00%     53.23% # Type of FU issued
system.cpu0.iq.FU_type_0::SimdFloatReduceAdd            0      0.00%     53.23% # Type of FU issued
system.cpu0.iq.FU_type_0::SimdFloatReduceCmp            0      0.00%     53.23% # Type of FU issued
system.cpu0.iq.FU_type_0::SimdAes                   0      0.00%     53.23% # Type of FU issued
system.cpu0.iq.FU_type_0::SimdAesMix                0      0.00%     53.23% # Type of FU issued
system.cpu0.iq.FU_type_0::SimdSha1Hash              0      0.00%     53.23% # Type of FU issued
system.cpu0.iq.FU_type_0::SimdSha1Hash2             0      0.00%     53.23% # Type of FU issued
system.cpu0.iq.FU_type_0::SimdSha256Hash            0      0.00%     53.23% # Type of FU issued
system.cpu0.iq.FU_type_0::SimdSha256Hash2            0      0.00%     53.23% # Type of FU issued
system.cpu0.iq.FU_type_0::SimdShaSigma2             0      0.00%     53.23% # Type of FU issued
system.cpu0.iq.FU_type_0::SimdShaSigma3             0      0.00%     53.23% # Type of FU issued
system.cpu0.iq.FU_type_0::SimdPredAlu               0      0.00%     53.23% # Type of FU issued
system.cpu0.iq.FU_type_0::MemRead              313202     28.08%     81.30% # Type of FU issued
system.cpu0.iq.FU_type_0::MemWrite             208524     18.69%    100.00% # Type of FU issued
system.cpu0.iq.FU_type_0::FloatMemRead             13      0.00%    100.00% # Type of FU issued
system.cpu0.iq.FU_type_0::FloatMemWrite            23      0.00%    100.00% # Type of FU issued
system.cpu0.iq.FU_type_0::IprAccess                 0      0.00%    100.00% # Type of FU issued
system.cpu0.iq.FU_type_0::InstPrefetch              0      0.00%    100.00% # Type of FU issued
system.cpu0.iq.FU_type_0::total               1115475                       # Type of FU issued
system.cpu0.iq.fp_alu_accesses                     69                       # Number of floating point alu accesses
system.cpu0.iq.fp_inst_queue_reads                135                       # Number of floating instruction queue reads
system.cpu0.iq.fp_inst_queue_wakeup_accesses           66                       # Number of floating instruction queue wakeup accesses
system.cpu0.iq.fp_inst_queue_writes                67                       # Number of floating instruction queue writes
system.cpu0.iq.fu_busy_cnt                       4333                       # FU busy when requested
system.cpu0.iq.fu_busy_rate                  0.003884                       # FU busy rate (busy events/executed inst)
system.cpu0.iq.fu_full::No_OpClass                  0      0.00%      0.00% # attempts to use FU when none available
system.cpu0.iq.fu_full::IntAlu                     99      2.28%      2.28% # attempts to use FU when none available
system.cpu0.iq.fu_full::IntMult                     0      0.00%      2.28% # attempts to use FU when none available
system.cpu0.iq.fu_full::IntDiv                      0      0.00%      2.28% # attempts to use FU when none available
system.cpu0.iq.fu_full::FloatAdd                    0      0.00%      2.28% # attempts to use FU when none available
system.cpu0.iq.fu_full::FloatCmp                    0      0.00%      2.28% # attempts to use FU when none available
system.cpu0.iq.fu_full::FloatCvt                    0      0.00%      2.28% # attempts to use FU when none available
system.cpu0.iq.fu_full::FloatMult                   0      0.00%      2.28% # attempts to use FU when none available
system.cpu0.iq.fu_full::FloatMultAcc                0      0.00%      2.28% # attempts to use FU when none available
system.cpu0.iq.fu_full::FloatDiv                    0      0.00%      2.28% # attempts to use FU when none available
system.cpu0.iq.fu_full::FloatMisc                   0      0.00%      2.28% # attempts to use FU when none available
system.cpu0.iq.fu_full::FloatSqrt                   0      0.00%      2.28% # attempts to use FU when none available
system.cpu0.iq.fu_full::SimdAdd                     0      0.00%      2.28% # attempts to use FU when none available
system.cpu0.iq.fu_full::SimdAddAcc                  0      0.00%      2.28% # attempts to use FU when none available
system.cpu0.iq.fu_full::SimdAlu                     0      0.00%      2.28% # attempts to use FU when none available
system.cpu0.iq.fu_full::SimdCmp                     0      0.00%      2.28% # attempts to use FU when none available
system.cpu0.iq.fu_full::SimdCvt                     0      0.00%      2.28% # attempts to use FU when none available
system.cpu0.iq.fu_full::SimdMisc                    0      0.00%      2.28% # attempts to use FU when none available
system.cpu0.iq.fu_full::SimdMult                    0      0.00%      2.28% # attempts to use FU when none available
system.cpu0.iq.fu_full::SimdMultAcc                 0      0.00%      2.28% # attempts to use FU when none available
system.cpu0.iq.fu_full::SimdShift                   0      0.00%      2.28% # attempts to use FU when none available
system.cpu0.iq.fu_full::SimdShiftAcc                0      0.00%      2.28% # attempts to use FU when none available
system.cpu0.iq.fu_full::SimdDiv                     0      0.00%      2.28% # attempts to use FU when none available
system.cpu0.iq.fu_full::SimdSqrt                    0      0.00%      2.28% # attempts to use FU when none available
system.cpu0.iq.fu_full::SimdFloatAdd                0      0.00%      2.28% # attempts to use FU when none available
system.cpu0.iq.fu_full::SimdFloatAlu                0      0.00%      2.28% # attempts to use FU when none available
system.cpu0.iq.fu_full::SimdFloatCmp                0      0.00%      2.28% # attempts to use FU when none available
system.cpu0.iq.fu_full::SimdFloatCvt                0      0.00%      2.28% # attempts to use FU when none available
system.cpu0.iq.fu_full::SimdFloatDiv                0      0.00%      2.28% # attempts to use FU when none available
system.cpu0.iq.fu_full::SimdFloatMisc               0      0.00%      2.28% # attempts to use FU when none available
system.cpu0.iq.fu_full::SimdFloatMult               0      0.00%      2.28% # attempts to use FU when none available
system.cpu0.iq.fu_full::SimdFloatMultAcc            0      0.00%      2.28% # attempts to use FU when none available
system.cpu0.iq.fu_full::SimdFloatSqrt               0      0.00%      2.28% # attempts to use FU when none available
system.cpu0.iq.fu_full::SimdReduceAdd               0      0.00%      2.28% # attempts to use FU when none available
system.cpu0.iq.fu_full::SimdReduceAlu               0      0.00%      2.28% # attempts to use FU when none available
system.cpu0.iq.fu_full::SimdReduceCmp               0      0.00%      2.28% # attempts to use FU when none available
system.cpu0.iq.fu_full::SimdFloatReduceAdd            0      0.00%      2.28% # attempts to use FU when none available
system.cpu0.iq.fu_full::SimdFloatReduceCmp            0      0.00%      2.28% # attempts to use FU when none available
system.cpu0.iq.fu_full::SimdAes                     0      0.00%      2.28% # attempts to use FU when none available
system.cpu0.iq.fu_full::SimdAesMix                  0      0.00%      2.28% # attempts to use FU when none available
system.cpu0.iq.fu_full::SimdSha1Hash                0      0.00%      2.28% # attempts to use FU when none available
system.cpu0.iq.fu_full::SimdSha1Hash2               0      0.00%      2.28% # attempts to use FU when none available
system.cpu0.iq.fu_full::SimdSha256Hash              0      0.00%      2.28% # attempts to use FU when none available
system.cpu0.iq.fu_full::SimdSha256Hash2             0      0.00%      2.28% # attempts to use FU when none available
system.cpu0.iq.fu_full::SimdShaSigma2               0      0.00%      2.28% # attempts to use FU when none available
system.cpu0.iq.fu_full::SimdShaSigma3               0      0.00%      2.28% # attempts to use FU when none available
system.cpu0.iq.fu_full::SimdPredAlu                 0      0.00%      2.28% # attempts to use FU when none available
system.cpu0.iq.fu_full::MemRead                  2445     56.43%     58.71% # attempts to use FU when none available
system.cpu0.iq.fu_full::MemWrite                 1786     41.22%     99.93% # attempts to use FU when none available
system.cpu0.iq.fu_full::FloatMemRead                0      0.00%     99.93% # attempts to use FU when none available
system.cpu0.iq.fu_full::FloatMemWrite               3      0.07%    100.00% # attempts to use FU when none available
system.cpu0.iq.fu_full::IprAccess                   0      0.00%    100.00% # attempts to use FU when none available
system.cpu0.iq.fu_full::InstPrefetch                0      0.00%    100.00% # attempts to use FU when none available
system.cpu0.iq.int_alu_accesses               1117163                       # Number of integer alu accesses
system.cpu0.iq.int_inst_queue_reads           4467539                       # Number of integer instruction queue reads
system.cpu0.iq.int_inst_queue_wakeup_accesses      1092792                       # Number of integer instruction queue wakeup accesses
system.cpu0.iq.int_inst_queue_writes          1187575                       # Number of integer instruction queue writes
system.cpu0.iq.iqInstsAdded                   1117893                       # Number of instructions added to the IQ (excludes non-spec)
system.cpu0.iq.iqInstsIssued                  1115475                       # Number of instructions issued
system.cpu0.iq.iqNonSpecInstsAdded               4085                       # Number of non-speculative instructions added to the IQ
system.cpu0.iq.iqSquashedInstsExamined          65621                       # Number of squashed instructions iterated over during squash; mainly for profiling
system.cpu0.iq.iqSquashedInstsIssued              163                       # Number of squashed instructions issued
system.cpu0.iq.iqSquashedNonSpecRemoved           312                       # Number of squashed non-spec instructions that were removed
system.cpu0.iq.iqSquashedOperandsExamined        24120                       # Number of squashed operands that are examined and possibly removed from graph
system.cpu0.iq.issued_per_cycle::samples      2232229                       # Number of insts issued each cycle
system.cpu0.iq.issued_per_cycle::mean        0.499714                       # Number of insts issued each cycle
system.cpu0.iq.issued_per_cycle::stdev       0.785984                       # Number of insts issued each cycle
system.cpu0.iq.issued_per_cycle::underflows            0      0.00%      0.00% # Number of insts issued each cycle
system.cpu0.iq.issued_per_cycle::0            1406849     63.02%     63.02% # Number of insts issued each cycle
system.cpu0.iq.issued_per_cycle::1             619076     27.73%     90.76% # Number of insts issued each cycle
system.cpu0.iq.issued_per_cycle::2             149604      6.70%     97.46% # Number of insts issued each cycle
system.cpu0.iq.issued_per_cycle::3              36818      1.65%     99.11% # Number of insts issued each cycle
system.cpu0.iq.issued_per_cycle::4              14635      0.66%     99.76% # Number of insts issued each cycle
system.cpu0.iq.issued_per_cycle::5               3529      0.16%     99.92% # Number of insts issued each cycle
system.cpu0.iq.issued_per_cycle::6               1556      0.07%     99.99% # Number of insts issued each cycle
system.cpu0.iq.issued_per_cycle::7                 80      0.00%    100.00% # Number of insts issued each cycle
system.cpu0.iq.issued_per_cycle::8                 82      0.00%    100.00% # Number of insts issued each cycle
system.cpu0.iq.issued_per_cycle::overflows            0      0.00%    100.00% # Number of insts issued each cycle
system.cpu0.iq.issued_per_cycle::min_value            0                       # Number of insts issued each cycle
system.cpu0.iq.issued_per_cycle::max_value            8                       # Number of insts issued each cycle
system.cpu0.iq.issued_per_cycle::total        2232229                       # Number of insts issued each cycle
system.cpu0.iq.rate                          0.414222                       # Inst issue rate
system.cpu0.iq.vec_alu_accesses                     0                       # Number of vector alu accesses
system.cpu0.iq.vec_inst_queue_reads                 0                       # Number of vector instruction queue reads
system.cpu0.iq.vec_inst_queue_wakeup_accesses            0                       # Number of vector instruction queue wakeup accesses
system.cpu0.iq.vec_inst_queue_writes                0                       # Number of vector instruction queue writes
system.cpu0.itb.accesses                            0                       # DTB accesses
system.cpu0.itb.hits                                0                       # DTB hits
system.cpu0.itb.misses                              0                       # DTB misses
system.cpu0.itb.read_accesses                       0                       # DTB read accesses
system.cpu0.itb.read_hits                           0                       # DTB read hits
system.cpu0.itb.read_misses                         0                       # DTB read misses
system.cpu0.itb.write_accesses                      0                       # DTB write accesses
system.cpu0.itb.write_hits                          0                       # DTB write hits
system.cpu0.itb.write_misses                        0                       # DTB write misses
system.cpu0.memDep0.conflictingLoads            11993                       # Number of conflicting loads.
system.cpu0.memDep0.conflictingStores            5635                       # Number of conflicting stores.
system.cpu0.memDep0.insertedLoads              310878                       # Number of loads inserted to the mem dependence unit.
system.cpu0.memDep0.insertedStores             211789                       # Number of stores inserted to the mem dependence unit.
system.cpu0.misc_regfile_reads                    313                       # number of misc regfile reads
system.cpu0.misc_regfile_writes                    30                       # number of misc regfile writes
system.cpu0.numCycles                         2692937                       # number of cpu cycles simulated
system.cpu0.numWorkItemsCompleted                   0                       # number of work items this cpu completed
system.cpu0.numWorkItemsStarted                     0                       # number of work items this cpu started
system.cpu0.quiesceCycles                        2966                       # Total number of cycles that CPU has spent quiesced or waiting for an interrupt
system.cpu0.rename.BlockCycles                  15681                       # Number of cycles rename is blocking
system.cpu0.rename.CommittedMaps               685221                       # Number of HB maps that are committed
system.cpu0.rename.IQFullEvents                  1576                       # Number of times rename has blocked due to IQ full
system.cpu0.rename.IdleCycles                 1302030                       # Number of cycles rename is idle
system.cpu0.rename.LQFullEvents                   675                       # Number of times rename has blocked due to LQ full
system.cpu0.rename.RenameLookups              1384661                       # Number of register rename lookups that rename has made
system.cpu0.rename.RenamedInsts               1156601                       # Number of instructions processed by rename
system.cpu0.rename.RenamedOperands             757546                       # Number of destination operands rename has renamed
system.cpu0.rename.RunCycles                   861448                       # Number of cycles rename is running
system.cpu0.rename.SQFullEvents                  5585                       # Number of times rename has blocked due to SQ full
system.cpu0.rename.SquashCycles                 21564                       # Number of cycles rename is squashing
system.cpu0.rename.UnblockCycles                 8577                       # Number of cycles rename is unblocking
system.cpu0.rename.UndoneMaps                   72320                       # Number of HB maps that are undone due to squashing
system.cpu0.rename.fp_rename_lookups               56                       # Number of floating rename lookups
system.cpu0.rename.int_rename_lookups         1384605                       # Number of integer rename lookups
system.cpu0.rename.serializeStallCycles         22929                       # count of cycles rename stalled for serializing inst
system.cpu0.rename.serializingInsts               971                       # count of serializing insts renamed
system.cpu0.rename.skidInsts                     8941                       # count of insts added to the skid buffer
system.cpu0.rename.tempSerializingInsts           962                       # count of temporary serializing insts renamed
system.cpu0.rob.rob_reads                     3298570                       # The number of ROB reads
system.cpu0.rob.rob_writes                    2269294                       # The number of ROB writes
system.cpu0.timesIdled                          49763                       # Number of times that the entire CPU went into an idle state and unscheduled itself
system.cpu0.workload.numSyscalls                  269                       # Number of system calls
system.cpu1.branchPred.BTBCorrect                   0                       # Number of correct BTB predictions (this stat may not work properly.
system.cpu1.branchPred.BTBHitPct            62.943152                       # BTB Hit Percentage
system.cpu1.branchPred.BTBHits                   5060                       # Number of BTB hits
system.cpu1.branchPred.BTBLookups                8039                       # Number of BTB lookups
system.cpu1.branchPred.RASInCorrect                 0                       # Number of incorrect RAS predictions.
system.cpu1.branchPred.condIncorrect             1475                       # Number of conditional branches incorrect
system.cpu1.branchPred.condPredicted             7482                       # Number of conditional branches predicted
system.cpu1.branchPred.indirectHits               830                       # Number of indirect target hits.
system.cpu1.branchPred.indirectLookups           1372                       # Number of indirect predictor lookups.
system.cpu1.branchPred.indirectMisses             542                       # Number of indirect misses.
system.cpu1.branchPred.lookups                  11216                       # Number of BP lookups
system.cpu1.branchPred.usedRAS                      0                       # Number of times the RAS was used to get a target.
system.cpu1.branchPredindirectMispredicted          317                       # Number of mispredicted indirect branches.
system.cpu1.commit.amos                           511                       # Number of atomic instructions committed
system.cpu1.commit.branchMispredicts             1095                       # The number of times a branch was mispredicted
system.cpu1.commit.branches                      7352                       # Number of branches committed
system.cpu1.commit.bw_lim_events                  182                       # number cycles where commit BW limit reached
system.cpu1.commit.commitNonSpecStalls           2005                       # The number of times commit has been forced to stall to communicate backwards
system.cpu1.commit.commitSquashedInsts           4646                       # The number of squashed insts skipped by commit
system.cpu1.commit.committedInsts               30433                       # Number of instructions committed
system.cpu1.commit.committedOps                 31055                       # Number of ops (including micro ops) committed
system.cpu1.commit.committed_per_cycle::samples        77080                       # Number of insts commited each cycle
system.cpu1.commit.committed_per_cycle::mean     0.402893                       # Number of insts commited each cycle
system.cpu1.commit.committed_per_cycle::stdev     1.016089                       # Number of insts commited each cycle
system.cpu1.commit.committed_per_cycle::underflows            0      0.00%      0.00% # Number of insts commited each cycle
system.cpu1.commit.committed_per_cycle::0        60288     78.21%     78.21% # Number of insts commited each cycle
system.cpu1.commit.committed_per_cycle::1        10260     13.31%     91.53% # Number of insts commited each cycle
system.cpu1.commit.committed_per_cycle::2         2937      3.81%     95.34% # Number of insts commited each cycle
system.cpu1.commit.committed_per_cycle::3         1858      2.41%     97.75% # Number of insts commited each cycle
system.cpu1.commit.committed_per_cycle::4          672      0.87%     98.62% # Number of insts commited each cycle
system.cpu1.commit.committed_per_cycle::5          204      0.26%     98.88% # Number of insts commited each cycle
system.cpu1.commit.committed_per_cycle::6          570      0.74%     99.62% # Number of insts commited each cycle
system.cpu1.commit.committed_per_cycle::7          109      0.14%     99.76% # Number of insts commited each cycle
system.cpu1.commit.committed_per_cycle::8          182      0.24%    100.00% # Number of insts commited each cycle
system.cpu1.commit.committed_per_cycle::overflows            0      0.00%    100.00% # Number of insts commited each cycle
system.cpu1.commit.committed_per_cycle::min_value            0                       # Number of insts commited each cycle
system.cpu1.commit.committed_per_cycle::max_value            8                       # Number of insts commited each cycle
system.cpu1.commit.committed_per_cycle::total        77080                       # Number of insts commited each cycle
system.cpu1.commit.fp_insts                        12                       # Number of committed floating point instructions.
system.cpu1.commit.function_calls                1800                       # Number of function calls committed.
system.cpu1.commit.int_insts                    29366                       # Number of committed integer instructions.
system.cpu1.commit.loads                         6509                       # Number of loads committed
system.cpu1.commit.membars                       1038                       # Number of memory barriers committed
system.cpu1.commit.op_class_0::No_OpClass         1038      3.34%      3.34% # Class of committed instruction
system.cpu1.commit.op_class_0::IntAlu           19453     62.64%     65.98% # Class of committed instruction
system.cpu1.commit.op_class_0::IntMult             31      0.10%     66.08% # Class of committed instruction
system.cpu1.commit.op_class_0::IntDiv              62      0.20%     66.28% # Class of committed instruction
system.cpu1.commit.op_class_0::FloatAdd             0      0.00%     66.28% # Class of committed instruction
system.cpu1.commit.op_class_0::FloatCmp             0      0.00%     66.28% # Class of committed instruction
system.cpu1.commit.op_class_0::FloatCvt             0      0.00%     66.28% # Class of committed instruction
system.cpu1.commit.op_class_0::FloatMult            0      0.00%     66.28% # Class of committed instruction
system.cpu1.commit.op_class_0::FloatMultAcc            0      0.00%     66.28% # Class of committed instruction
system.cpu1.commit.op_class_0::FloatDiv             0      0.00%     66.28% # Class of committed instruction
system.cpu1.commit.op_class_0::FloatMisc            0      0.00%     66.28% # Class of committed instruction
system.cpu1.commit.op_class_0::FloatSqrt            0      0.00%     66.28% # Class of committed instruction
system.cpu1.commit.op_class_0::SimdAdd              0      0.00%     66.28% # Class of committed instruction
system.cpu1.commit.op_class_0::SimdAddAcc            0      0.00%     66.28% # Class of committed instruction
system.cpu1.commit.op_class_0::SimdAlu              0      0.00%     66.28% # Class of committed instruction
system.cpu1.commit.op_class_0::SimdCmp              0      0.00%     66.28% # Class of committed instruction
system.cpu1.commit.op_class_0::SimdCvt              0      0.00%     66.28% # Class of committed instruction
system.cpu1.commit.op_class_0::SimdMisc             0      0.00%     66.28% # Class of committed instruction
system.cpu1.commit.op_class_0::SimdMult             0      0.00%     66.28% # Class of committed instruction
system.cpu1.commit.op_class_0::SimdMultAcc            0      0.00%     66.28% # Class of committed instruction
system.cpu1.commit.op_class_0::SimdShift            0      0.00%     66.28% # Class of committed instruction
system.cpu1.commit.op_class_0::SimdShiftAcc            0      0.00%     66.28% # Class of committed instruction
system.cpu1.commit.op_class_0::SimdDiv              0      0.00%     66.28% # Class of committed instruction
system.cpu1.commit.op_class_0::SimdSqrt             0      0.00%     66.28% # Class of committed instruction
system.cpu1.commit.op_class_0::SimdFloatAdd            0      0.00%     66.28% # Class of committed instruction
system.cpu1.commit.op_class_0::SimdFloatAlu            0      0.00%     66.28% # Class of committed instruction
system.cpu1.commit.op_class_0::SimdFloatCmp            0      0.00%     66.28% # Class of committed instruction
system.cpu1.commit.op_class_0::SimdFloatCvt            0      0.00%     66.28% # Class of committed instruction
system.cpu1.commit.op_class_0::SimdFloatDiv            0      0.00%     66.28% # Class of committed instruction
system.cpu1.commit.op_class_0::SimdFloatMisc            0      0.00%     66.28% # Class of committed instruction
system.cpu1.commit.op_class_0::SimdFloatMult            0      0.00%     66.28% # Class of committed instruction
system.cpu1.commit.op_class_0::SimdFloatMultAcc            0      0.00%     66.28% # Class of committed instruction
system.cpu1.commit.op_class_0::SimdFloatSqrt            0      0.00%     66.28% # Class of committed instruction
system.cpu1.commit.op_class_0::SimdReduceAdd            0      0.00%     66.28% # Class of committed instruction
system.cpu1.commit.op_class_0::SimdReduceAlu            0      0.00%     66.28% # Class of committed instruction
system.cpu1.commit.op_class_0::SimdReduceCmp            0      0.00%     66.28% # Class of committed instruction
system.cpu1.commit.op_class_0::SimdFloatReduceAdd            0      0.00%     66.28% # Class of committed instruction
system.cpu1.commit.op_class_0::SimdFloatReduceCmp            0      0.00%     66.28% # Class of committed instruction
system.cpu1.commit.op_class_0::SimdAes              0      0.00%     66.28% # Class of committed instruction
system.cpu1.commit.op_class_0::SimdAesMix            0      0.00%     66.28% # Class of committed instruction
system.cpu1.commit.op_class_0::SimdSha1Hash            0      0.00%     66.28% # Class of committed instruction
system.cpu1.commit.op_class_0::SimdSha1Hash2            0      0.00%     66.28% # Class of committed instruction
system.cpu1.commit.op_class_0::SimdSha256Hash            0      0.00%     66.28% # Class of committed instruction
system.cpu1.commit.op_class_0::SimdSha256Hash2            0      0.00%     66.28% # Class of committed instruction
system.cpu1.commit.op_class_0::SimdShaSigma2            0      0.00%     66.28% # Class of committed instruction
system.cpu1.commit.op_class_0::SimdShaSigma3            0      0.00%     66.28% # Class of committed instruction
system.cpu1.commit.op_class_0::SimdPredAlu            0      0.00%     66.28% # Class of committed instruction
system.cpu1.commit.op_class_0::MemRead           7020     22.61%     88.89% # Class of committed instruction
system.cpu1.commit.op_class_0::MemWrite          3439     11.07%     99.96% # Class of committed instruction
system.cpu1.commit.op_class_0::FloatMemRead            0      0.00%     99.96% # Class of committed instruction
system.cpu1.commit.op_class_0::FloatMemWrite           12      0.04%    100.00% # Class of committed instruction
system.cpu1.commit.op_class_0::IprAccess            0      0.00%    100.00% # Class of committed instruction
system.cpu1.commit.op_class_0::InstPrefetch            0      0.00%    100.00% # Class of committed instruction
system.cpu1.commit.op_class_0::total            31055                       # Class of committed instruction
system.cpu1.commit.refs                         10471                       # Number of memory references committed
system.cpu1.commit.swp_count                        0                       # Number of s/w prefetches committed
system.cpu1.commit.vec_insts                        0                       # Number of committed Vector instructions.
system.cpu1.committedInsts                      30433                       # Number of Instructions Simulated
system.cpu1.committedOps                        31055                       # Number of Ops (including micro ops) Simulated
system.cpu1.cpi                              3.060461                       # CPI: Cycles Per Instruction
system.cpu1.cpi_total                        3.060461                       # CPI: Total CPI of All Threads
system.cpu1.decode.BlockedCycles                19982                       # Number of cycles decode is blocked
system.cpu1.decode.BranchMispred                  384                       # Number of times decode detected a branch misprediction
system.cpu1.decode.BranchResolved                4212                       # Number of times decode resolved a branch
system.cpu1.decode.DecodedInsts                 39767                       # Number of instructions handled by decode
system.cpu1.decode.IdleCycles                   33026                       # Number of cycles decode is idle
system.cpu1.decode.RunCycles                    23490                       # Number of cycles decode is running
system.cpu1.decode.SquashCycles                  1279                       # Number of cycles decode is squashing
system.cpu1.decode.SquashedInsts                  806                       # Number of squashed instructions handled by decode
system.cpu1.decode.UnblockCycles                  759                       # Number of cycles decode is unblocking
system.cpu1.dtb.accesses                            0                       # DTB accesses
system.cpu1.dtb.hits                                0                       # DTB hits
system.cpu1.dtb.misses                              0                       # DTB misses
system.cpu1.dtb.read_accesses                       0                       # DTB read accesses
system.cpu1.dtb.read_hits                           0                       # DTB read hits
system.cpu1.dtb.read_misses                         0                       # DTB read misses
system.cpu1.dtb.write_accesses                      0                       # DTB write accesses
system.cpu1.dtb.write_hits                          0                       # DTB write hits
system.cpu1.dtb.write_misses                        0                       # DTB write misses
system.cpu1.fetch.Branches                      11216                       # Number of branches that fetch encountered
system.cpu1.fetch.CacheLines                     6753                       # Number of cache lines fetched
system.cpu1.fetch.Cycles                        39540                       # Number of cycles fetch has run and was not squashing or blocked
system.cpu1.fetch.IcacheSquashes                  577                       # Number of outstanding Icache misses that were squashed
system.cpu1.fetch.IcacheWaitRetryStallCycles           24                       # Number of stall cycles due to full MSHR
system.cpu1.fetch.Insts                         45627                       # Number of instructions fetch has processed
system.cpu1.fetch.MiscStallCycles                   3                       # Number of cycles fetch has spent waiting on interrupts, or bad addresses, or out of MSHRs
system.cpu1.fetch.SquashCycles                   3318                       # Number of cycles fetch has spent squashing
system.cpu1.fetch.branchRate                 0.120422                       # Number of branch fetches per cycle
system.cpu1.fetch.icacheStallCycles             37310                       # Number of cycles fetch is stalled on an Icache miss
system.cpu1.fetch.predictedBranches              5890                       # Number of branches that fetch has predicted taken
system.cpu1.fetch.rate                       0.489881                       # Number of inst fetches per cycle
system.cpu1.fetch.rateDist::samples             78536                       # Number of instructions fetched each cycle (Total)
system.cpu1.fetch.rateDist::mean             0.597089                       # Number of instructions fetched each cycle (Total)
system.cpu1.fetch.rateDist::stdev            0.957449                       # Number of instructions fetched each cycle (Total)
system.cpu1.fetch.rateDist::underflows              0      0.00%      0.00% # Number of instructions fetched each cycle (Total)
system.cpu1.fetch.rateDist::0                   46969     59.81%     59.81% # Number of instructions fetched each cycle (Total)
system.cpu1.fetch.rateDist::1                   22519     28.67%     88.48% # Number of instructions fetched each cycle (Total)
system.cpu1.fetch.rateDist::2                    5642      7.18%     95.66% # Number of instructions fetched each cycle (Total)
system.cpu1.fetch.rateDist::3                    1903      2.42%     98.09% # Number of instructions fetched each cycle (Total)
system.cpu1.fetch.rateDist::4                     557      0.71%     98.80% # Number of instructions fetched each cycle (Total)
system.cpu1.fetch.rateDist::5                     714      0.91%     99.70% # Number of instructions fetched each cycle (Total)
system.cpu1.fetch.rateDist::6                     132      0.17%     99.87% # Number of instructions fetched each cycle (Total)
system.cpu1.fetch.rateDist::7                       9      0.01%     99.88% # Number of instructions fetched each cycle (Total)
system.cpu1.fetch.rateDist::8                      91      0.12%    100.00% # Number of instructions fetched each cycle (Total)
system.cpu1.fetch.rateDist::overflows               0      0.00%    100.00% # Number of instructions fetched each cycle (Total)
system.cpu1.fetch.rateDist::min_value               0                       # Number of instructions fetched each cycle (Total)
system.cpu1.fetch.rateDist::max_value               8                       # Number of instructions fetched each cycle (Total)
system.cpu1.fetch.rateDist::total               78536                       # Number of instructions fetched each cycle (Total)
system.cpu1.fp_regfile_reads                       12                       # number of floating regfile reads
system.cpu1.idleCycles                          14603                       # Total number of cycles that the CPU has spent unscheduled due to idling
system.cpu1.iew.branchMispredicts                1165                       # Number of branch mispredicts detected at execute
system.cpu1.iew.exec_branches                    7801                       # Number of branches executed
system.cpu1.iew.exec_nop                            0                       # number of nop insts executed
system.cpu1.iew.exec_rate                    0.362136                       # Inst execution rate
system.cpu1.iew.exec_refs                       11211                       # number of memory reference insts executed
system.cpu1.iew.exec_stores                      4223                       # Number of stores executed
system.cpu1.iew.exec_swp                            0                       # number of swp insts executed
system.cpu1.iew.iewBlockCycles                   5902                       # Number of cycles IEW is blocking
system.cpu1.iew.iewDispLoadInsts                 7548                       # Number of dispatched load instructions
system.cpu1.iew.iewDispNonSpecInsts              1136                       # Number of dispatched non-speculative instructions
system.cpu1.iew.iewDispSquashedInsts              873                       # Number of squashed instructions skipped by dispatch
system.cpu1.iew.iewDispStoreInsts                4495                       # Number of dispatched store instructions
system.cpu1.iew.iewDispatchedInsts              35699                       # Number of instructions dispatched to IQ
system.cpu1.iew.iewExecLoadInsts                 6988                       # Number of load instructions executed
system.cpu1.iew.iewExecSquashedInsts              803                       # Number of squashed instructions skipped in execute
system.cpu1.iew.iewExecutedInsts                33729                       # Number of executed instructions
system.cpu1.iew.iewIQFullEvents                   260                       # Number of times the IQ has become full, causing a stall
system.cpu1.iew.iewIdleCycles                       0                       # Number of cycles IEW is idle
system.cpu1.iew.iewLSQFullEvents                    4                       # Number of times the LSQ has become full, causing a stall
system.cpu1.iew.iewSquashCycles                  1279                       # Number of cycles IEW is squashing
system.cpu1.iew.iewUnblockCycles                  517                       # Number of cycles IEW is unblocking
system.cpu1.iew.lsq.thread0.blockedLoads            0                       # Number of blocked loads due to partial load-store forwarding
system.cpu1.iew.lsq.thread0.cacheBlocked            2                       # Number of times an access to memory failed due to the cache being blocked
system.cpu1.iew.lsq.thread0.forwLoads              62                       # Number of loads that had data forwarded from stores
system.cpu1.iew.lsq.thread0.ignoredResponses           13                       # Number of memory responses ignored because the instruction is squashed
system.cpu1.iew.lsq.thread0.invAddrLoads            0                       # Number of loads ignored due to an invalid address
system.cpu1.iew.lsq.thread0.invAddrSwpfs            0                       # Number of software prefetches ignored due to an invalid address
system.cpu1.iew.lsq.thread0.memOrderViolation           11                       # Number of memory ordering violations
system.cpu1.iew.lsq.thread0.rescheduledLoads            0                       # Number of loads that were rescheduled
system.cpu1.iew.lsq.thread0.squashedLoads         1039                       # Number of loads squashed
system.cpu1.iew.lsq.thread0.squashedStores          533                       # Number of stores squashed
system.cpu1.iew.memOrderViolationEvents            11                       # Number of memory order violations
system.cpu1.iew.predictedNotTakenIncorrect          704                       # Number of branches that were predicted not taken incorrectly
system.cpu1.iew.predictedTakenIncorrect           461                       # Number of branches that were predicted taken incorrectly
system.cpu1.iew.wb_consumers                    12201                       # num instructions consuming a value
system.cpu1.iew.wb_count                        33240                       # cumulative count of insts written-back
system.cpu1.iew.wb_fanout                    0.843865                       # average fanout of values written-back
system.cpu1.iew.wb_producers                    10296                       # num instructions producing a value
system.cpu1.iew.wb_rate                      0.356886                       # insts written-back per cycle
system.cpu1.iew.wb_sent                         33425                       # cumulative count of insts sent to commit
system.cpu1.int_regfile_reads                   39858                       # number of integer regfile reads
system.cpu1.int_regfile_writes                  22356                       # number of integer regfile writes
system.cpu1.ipc                              0.326748                       # IPC: Instructions Per Cycle
system.cpu1.ipc_total                        0.326748                       # IPC: Total IPC of All Threads
system.cpu1.iq.FU_type_0::No_OpClass             1217      3.52%      3.52% # Type of FU issued
system.cpu1.iq.FU_type_0::IntAlu                21708     62.86%     66.39% # Type of FU issued
system.cpu1.iq.FU_type_0::IntMult                  37      0.11%     66.49% # Type of FU issued
system.cpu1.iq.FU_type_0::IntDiv                   62      0.18%     66.67% # Type of FU issued
system.cpu1.iq.FU_type_0::FloatAdd                  0      0.00%     66.67% # Type of FU issued
system.cpu1.iq.FU_type_0::FloatCmp                  0      0.00%     66.67% # Type of FU issued
system.cpu1.iq.FU_type_0::FloatCvt                  0      0.00%     66.67% # Type of FU issued
system.cpu1.iq.FU_type_0::FloatMult                 0      0.00%     66.67% # Type of FU issued
system.cpu1.iq.FU_type_0::FloatMultAcc              0      0.00%     66.67% # Type of FU issued
system.cpu1.iq.FU_type_0::FloatDiv                  0      0.00%     66.67% # Type of FU issued
system.cpu1.iq.FU_type_0::FloatMisc                 0      0.00%     66.67% # Type of FU issued
system.cpu1.iq.FU_type_0::FloatSqrt                 0      0.00%     66.67% # Type of FU issued
system.cpu1.iq.FU_type_0::SimdAdd                   0      0.00%     66.67% # Type of FU issued
system.cpu1.iq.FU_type_0::SimdAddAcc                0      0.00%     66.67% # Type of FU issued
system.cpu1.iq.FU_type_0::SimdAlu                   0      0.00%     66.67% # Type of FU issued
system.cpu1.iq.FU_type_0::SimdCmp                   0      0.00%     66.67% # Type of FU issued
system.cpu1.iq.FU_type_0::SimdCvt                   0      0.00%     66.67% # Type of FU issued
system.cpu1.iq.FU_type_0::SimdMisc                  0      0.00%     66.67% # Type of FU issued
system.cpu1.iq.FU_type_0::SimdMult                  0      0.00%     66.67% # Type of FU issued
system.cpu1.iq.FU_type_0::SimdMultAcc               0      0.00%     66.67% # Type of FU issued
system.cpu1.iq.FU_type_0::SimdShift                 0      0.00%     66.67% # Type of FU issued
system.cpu1.iq.FU_type_0::SimdShiftAcc              0      0.00%     66.67% # Type of FU issued
system.cpu1.iq.FU_type_0::SimdDiv                   0      0.00%     66.67% # Type of FU issued
system.cpu1.iq.FU_type_0::SimdSqrt                  0      0.00%     66.67% # Type of FU issued
system.cpu1.iq.FU_type_0::SimdFloatAdd              0      0.00%     66.67% # Type of FU issued
system.cpu1.iq.FU_type_0::SimdFloatAlu              0      0.00%     66.67% # Type of FU issued
system.cpu1.iq.FU_type_0::SimdFloatCmp              0      0.00%     66.67% # Type of FU issued
system.cpu1.iq.FU_type_0::SimdFloatCvt              0      0.00%     66.67% # Type of FU issued
system.cpu1.iq.FU_type_0::SimdFloatDiv              0      0.00%     66.67% # Type of FU issued
system.cpu1.iq.FU_type_0::SimdFloatMisc             0      0.00%     66.67% # Type of FU issued
system.cpu1.iq.FU_type_0::SimdFloatMult             0      0.00%     66.67% # Type of FU issued
system.cpu1.iq.FU_type_0::SimdFloatMultAcc            0      0.00%     66.67% # Type of FU issued
system.cpu1.iq.FU_type_0::SimdFloatSqrt             0      0.00%     66.67% # Type of FU issued
system.cpu1.iq.FU_type_0::SimdReduceAdd             0      0.00%     66.67% # Type of FU issued
system.cpu1.iq.FU_type_0::SimdReduceAlu             0      0.00%     66.67% # Type of FU issued
system.cpu1.iq.FU_type_0::SimdReduceCmp             0      0.00%     66.67% # Type of FU issued
system.cpu1.iq.FU_type_0::SimdFloatReduceAdd            0      0.00%     66.67% # Type of FU issued
system.cpu1.iq.FU_type_0::SimdFloatReduceCmp            0      0.00%     66.67% # Type of FU issued
system.cpu1.iq.FU_type_0::SimdAes                   0      0.00%     66.67% # Type of FU issued
system.cpu1.iq.FU_type_0::SimdAesMix                0      0.00%     66.67% # Type of FU issued
system.cpu1.iq.FU_type_0::SimdSha1Hash              0      0.00%     66.67% # Type of FU issued
system.cpu1.iq.FU_type_0::SimdSha1Hash2             0      0.00%     66.67% # Type of FU issued
system.cpu1.iq.FU_type_0::SimdSha256Hash            0      0.00%     66.67% # Type of FU issued
system.cpu1.iq.FU_type_0::SimdSha256Hash2            0      0.00%     66.67% # Type of FU issued
system.cpu1.iq.FU_type_0::SimdShaSigma2             0      0.00%     66.67% # Type of FU issued
system.cpu1.iq.FU_type_0::SimdShaSigma3             0      0.00%     66.67% # Type of FU issued
system.cpu1.iq.FU_type_0::SimdPredAlu               0      0.00%     66.67% # Type of FU issued
system.cpu1.iq.FU_type_0::MemRead                7732     22.39%     89.07% # Type of FU issued
system.cpu1.iq.FU_type_0::MemWrite               3764     10.90%     99.97% # Type of FU issued
system.cpu1.iq.FU_type_0::FloatMemRead              0      0.00%     99.97% # Type of FU issued
system.cpu1.iq.FU_type_0::FloatMemWrite            12      0.03%    100.00% # Type of FU issued
system.cpu1.iq.FU_type_0::IprAccess                 0      0.00%    100.00% # Type of FU issued
system.cpu1.iq.FU_type_0::InstPrefetch              0      0.00%    100.00% # Type of FU issued
system.cpu1.iq.FU_type_0::total                 34532                       # Type of FU issued
system.cpu1.iq.fp_alu_accesses                     15                       # Number of floating point alu accesses
system.cpu1.iq.fp_inst_queue_reads                 27                       # Number of floating instruction queue reads
system.cpu1.iq.fp_inst_queue_wakeup_accesses           12                       # Number of floating instruction queue wakeup accesses
system.cpu1.iq.fp_inst_queue_writes                12                       # Number of floating instruction queue writes
system.cpu1.iq.fu_busy_cnt                        303                       # FU busy when requested
system.cpu1.iq.fu_busy_rate                  0.008774                       # FU busy rate (busy events/executed inst)
system.cpu1.iq.fu_full::No_OpClass                  0      0.00%      0.00% # attempts to use FU when none available
system.cpu1.iq.fu_full::IntAlu                     72     23.76%     23.76% # attempts to use FU when none available
system.cpu1.iq.fu_full::IntMult                     0      0.00%     23.76% # attempts to use FU when none available
system.cpu1.iq.fu_full::IntDiv                      0      0.00%     23.76% # attempts to use FU when none available
system.cpu1.iq.fu_full::FloatAdd                    0      0.00%     23.76% # attempts to use FU when none available
system.cpu1.iq.fu_full::FloatCmp                    0      0.00%     23.76% # attempts to use FU when none available
system.cpu1.iq.fu_full::FloatCvt                    0      0.00%     23.76% # attempts to use FU when none available
system.cpu1.iq.fu_full::FloatMult                   0      0.00%     23.76% # attempts to use FU when none available
system.cpu1.iq.fu_full::FloatMultAcc                0      0.00%     23.76% # attempts to use FU when none available
system.cpu1.iq.fu_full::FloatDiv                    0      0.00%     23.76% # attempts to use FU when none available
system.cpu1.iq.fu_full::FloatMisc                   0      0.00%     23.76% # attempts to use FU when none available
system.cpu1.iq.fu_full::FloatSqrt                   0      0.00%     23.76% # attempts to use FU when none available
system.cpu1.iq.fu_full::SimdAdd                     0      0.00%     23.76% # attempts to use FU when none available
system.cpu1.iq.fu_full::SimdAddAcc                  0      0.00%     23.76% # attempts to use FU when none available
system.cpu1.iq.fu_full::SimdAlu                     0      0.00%     23.76% # attempts to use FU when none available
system.cpu1.iq.fu_full::SimdCmp                     0      0.00%     23.76% # attempts to use FU when none available
system.cpu1.iq.fu_full::SimdCvt                     0      0.00%     23.76% # attempts to use FU when none available
system.cpu1.iq.fu_full::SimdMisc                    0      0.00%     23.76% # attempts to use FU when none available
system.cpu1.iq.fu_full::SimdMult                    0      0.00%     23.76% # attempts to use FU when none available
system.cpu1.iq.fu_full::SimdMultAcc                 0      0.00%     23.76% # attempts to use FU when none available
system.cpu1.iq.fu_full::SimdShift                   0      0.00%     23.76% # attempts to use FU when none available
system.cpu1.iq.fu_full::SimdShiftAcc                0      0.00%     23.76% # attempts to use FU when none available
system.cpu1.iq.fu_full::SimdDiv                     0      0.00%     23.76% # attempts to use FU when none available
system.cpu1.iq.fu_full::SimdSqrt                    0      0.00%     23.76% # attempts to use FU when none available
system.cpu1.iq.fu_full::SimdFloatAdd                0      0.00%     23.76% # attempts to use FU when none available
system.cpu1.iq.fu_full::SimdFloatAlu                0      0.00%     23.76% # attempts to use FU when none available
system.cpu1.iq.fu_full::SimdFloatCmp                0      0.00%     23.76% # attempts to use FU when none available
system.cpu1.iq.fu_full::SimdFloatCvt                0      0.00%     23.76% # attempts to use FU when none available
system.cpu1.iq.fu_full::SimdFloatDiv                0      0.00%     23.76% # attempts to use FU when none available
system.cpu1.iq.fu_full::SimdFloatMisc               0      0.00%     23.76% # attempts to use FU when none available
system.cpu1.iq.fu_full::SimdFloatMult               0      0.00%     23.76% # attempts to use FU when none available
system.cpu1.iq.fu_full::SimdFloatMultAcc            0      0.00%     23.76% # attempts to use FU when none available
system.cpu1.iq.fu_full::SimdFloatSqrt               0      0.00%     23.76% # attempts to use FU when none available
system.cpu1.iq.fu_full::SimdReduceAdd               0      0.00%     23.76% # attempts to use FU when none available
system.cpu1.iq.fu_full::SimdReduceAlu               0      0.00%     23.76% # attempts to use FU when none available
system.cpu1.iq.fu_full::SimdReduceCmp               0      0.00%     23.76% # attempts to use FU when none available
system.cpu1.iq.fu_full::SimdFloatReduceAdd            0      0.00%     23.76% # attempts to use FU when none available
system.cpu1.iq.fu_full::SimdFloatReduceCmp            0      0.00%     23.76% # attempts to use FU when none available
system.cpu1.iq.fu_full::SimdAes                     0      0.00%     23.76% # attempts to use FU when none available
system.cpu1.iq.fu_full::SimdAesMix                  0      0.00%     23.76% # attempts to use FU when none available
system.cpu1.iq.fu_full::SimdSha1Hash                0      0.00%     23.76% # attempts to use FU when none available
system.cpu1.iq.fu_full::SimdSha1Hash2               0      0.00%     23.76% # attempts to use FU when none available
system.cpu1.iq.fu_full::SimdSha256Hash              0      0.00%     23.76% # attempts to use FU when none available
system.cpu1.iq.fu_full::SimdSha256Hash2             0      0.00%     23.76% # attempts to use FU when none available
system.cpu1.iq.fu_full::SimdShaSigma2               0      0.00%     23.76% # attempts to use FU when none available
system.cpu1.iq.fu_full::SimdShaSigma3               0      0.00%     23.76% # attempts to use FU when none available
system.cpu1.iq.fu_full::SimdPredAlu                 0      0.00%     23.76% # attempts to use FU when none available
system.cpu1.iq.fu_full::MemRead                   217     71.62%     95.38% # attempts to use FU when none available
system.cpu1.iq.fu_full::MemWrite                   11      3.63%     99.01% # attempts to use FU when none available
[...]
system.cpu1.dcache.WriteReq_mshr_misses::total         1393                       # number of WriteReq MSHR misses
system.cpu1.dcache.WriteReq_mshr_miss_latency::.cpu1.data      8735000                       # number of WriteReq MSHR miss cycles
system.cpu1.dcache.WriteReq_mshr_miss_latency::total      8735000                       # number of WriteReq MSHR miss cycles
system.cpu1.dcache.WriteReq_mshr_miss_rate::.cpu1.data     0.060787                       # mshr miss rate for WriteReq accesses
system.cpu1.dcache.WriteReq_mshr_miss_rate::total     0.060787                       # mshr miss rate for WriteReq accesses
system.cpu1.dcache.WriteReq_avg_mshr_miss_latency::.cpu1.data  6270.638909                       # average WriteReq mshr miss latency
system.cpu1.dcache.WriteReq_avg_mshr_miss_latency::total  6270.638909                       # average WriteReq mshr miss latency
system.cpu1.dcache.LoadLockedReq_hits::.cpu1.data         1984                       # number of LoadLockedReq hits
system.cpu1.dcache.LoadLockedReq_hits::total         1984                       # number of LoadLockedReq hits
system.cpu1.dcache.LoadLockedReq_misses::.cpu1.data          525                       # number of LoadLockedReq misses
system.cpu1.dcache.LoadLockedReq_misses::total          525                       # number of LoadLockedReq misses
system.cpu1.dcache.LoadLockedReq_miss_latency::.cpu1.data      2673500                       # number of LoadLockedReq miss cycles
system.cpu1.dcache.LoadLockedReq_miss_latency::total      2673500                       # number of LoadLockedReq miss cycles
system.cpu1.dcache.LoadLockedReq_accesses::.cpu1.data         2509                       # number of LoadLockedReq accesses(hits+misses)
system.cpu1.dcache.LoadLockedReq_accesses::total         2509                       # number of LoadLockedReq accesses(hits+misses)
system.cpu1.dcache.LoadLockedReq_miss_rate::.cpu1.data     0.209247                       # miss rate for LoadLockedReq accesses
system.cpu1.dcache.LoadLockedReq_miss_rate::total     0.209247                       # miss rate for LoadLockedReq accesses
system.cpu1.dcache.LoadLockedReq_avg_miss_latency::.cpu1.data  5092.380952                       # average LoadLockedReq miss latency
system.cpu1.dcache.LoadLockedReq_avg_miss_latency::total  5092.380952                       # average LoadLockedReq miss latency
system.cpu1.dcache.LoadLockedReq_mshr_hits::.cpu1.data          319                       # number of LoadLockedReq MSHR hits
system.cpu1.dcache.LoadLockedReq_mshr_hits::total          319                       # number of LoadLockedReq MSHR hits
system.cpu1.dcache.LoadLockedReq_mshr_misses::.cpu1.data          206                       # number of LoadLockedReq MSHR misses
system.cpu1.dcache.LoadLockedReq_mshr_misses::total          206                       # number of LoadLockedReq MSHR misses
system.cpu1.dcache.LoadLockedReq_mshr_miss_latency::.cpu1.data      1035500                       # number of LoadLockedReq MSHR miss cycles
system.cpu1.dcache.LoadLockedReq_mshr_miss_latency::total      1035500                       # number of LoadLockedReq MSHR miss cycles
system.cpu1.dcache.LoadLockedReq_mshr_miss_rate::.cpu1.data     0.082104                       # mshr miss rate for LoadLockedReq accesses
system.cpu1.dcache.LoadLockedReq_mshr_miss_rate::total     0.082104                       # mshr miss rate for LoadLockedReq accesses
system.cpu1.dcache.LoadLockedReq_avg_mshr_miss_latency::.cpu1.data  5026.699029                       # average LoadLockedReq mshr miss latency
system.cpu1.dcache.LoadLockedReq_avg_mshr_miss_latency::total  5026.699029                       # average LoadLockedReq mshr miss latency
system.cpu1.dcache.StoreCondReq_hits::.cpu1.data         1114                       # number of StoreCondReq hits
system.cpu1.dcache.StoreCondReq_hits::total         1114                       # number of StoreCondReq hits
system.cpu1.dcache.StoreCondReq_misses::.cpu1.data          866                       # number of StoreCondReq misses
system.cpu1.dcache.StoreCondReq_misses::total          866                       # number of StoreCondReq misses
system.cpu1.dcache.StoreCondReq_miss_latency::.cpu1.data      4503500                       # number of StoreCondReq miss cycles
system.cpu1.dcache.StoreCondReq_miss_latency::total      4503500                       # number of StoreCondReq miss cycles
system.cpu1.dcache.StoreCondReq_accesses::.cpu1.data         1980                       # number of StoreCondReq accesses(hits+misses)
system.cpu1.dcache.StoreCondReq_accesses::total         1980                       # number of StoreCondReq accesses(hits+misses)
system.cpu1.dcache.StoreCondReq_miss_rate::.cpu1.data     0.437374                       # miss rate for StoreCondReq accesses
system.cpu1.dcache.StoreCondReq_miss_rate::total     0.437374                       # miss rate for StoreCondReq accesses
system.cpu1.dcache.StoreCondReq_avg_miss_latency::.cpu1.data  5200.346420                       # average StoreCondReq miss latency
system.cpu1.dcache.StoreCondReq_avg_miss_latency::total  5200.346420                       # average StoreCondReq miss latency
system.cpu1.dcache.StoreCondReq_mshr_misses::.cpu1.data          859                       # number of StoreCondReq MSHR misses
system.cpu1.dcache.StoreCondReq_mshr_misses::total          859                       # number of StoreCondReq MSHR misses
system.cpu1.dcache.StoreCondReq_mshr_miss_latency::.cpu1.data      3649500                       # number of StoreCondReq MSHR miss cycles
system.cpu1.dcache.StoreCondReq_mshr_miss_latency::total      3649500                       # number of StoreCondReq MSHR miss cycles
system.cpu1.dcache.StoreCondReq_mshr_miss_rate::.cpu1.data     0.433838                       # mshr miss rate for StoreCondReq accesses
system.cpu1.dcache.StoreCondReq_mshr_miss_rate::total     0.433838                       # mshr miss rate for StoreCondReq accesses
system.cpu1.dcache.StoreCondReq_avg_mshr_miss_latency::.cpu1.data  4248.544820                       # average StoreCondReq mshr miss latency
system.cpu1.dcache.StoreCondReq_avg_mshr_miss_latency::total  4248.544820                       # average StoreCondReq mshr miss latency
system.cpu1.dcache.StoreCondFailReq_miss_latency::.cpu1.data        29000                       # number of StoreCondFailReq miss cycles
system.cpu1.dcache.StoreCondFailReq_miss_latency::total        29000                       # number of StoreCondFailReq miss cycles
system.cpu1.dcache.StoreCondFailReq_avg_miss_latency::.cpu1.data          inf                       # average StoreCondFailReq miss latency
system.cpu1.dcache.StoreCondFailReq_avg_miss_latency::total          inf                       # average StoreCondFailReq miss latency
system.cpu1.dcache.StoreCondFailReq_mshr_miss_latency::.cpu1.data        24000                       # number of StoreCondFailReq MSHR miss cycles
system.cpu1.dcache.StoreCondFailReq_mshr_miss_latency::total        24000                       # number of StoreCondFailReq MSHR miss cycles
system.cpu1.dcache.StoreCondFailReq_avg_mshr_miss_latency::.cpu1.data          inf                       # average StoreCondFailReq mshr miss latency
system.cpu1.dcache.StoreCondFailReq_avg_mshr_miss_latency::total          inf                       # average StoreCondFailReq mshr miss latency
system.cpu1.dcache.SwapReq_hits::.cpu1.data          719                       # number of SwapReq hits
system.cpu1.dcache.SwapReq_hits::total            719                       # number of SwapReq hits
system.cpu1.dcache.SwapReq_misses::.cpu1.data         1709                       # number of SwapReq misses
system.cpu1.dcache.SwapReq_misses::total         1709                       # number of SwapReq misses
system.cpu1.dcache.SwapReq_miss_latency::.cpu1.data      9313000                       # number of SwapReq miss cycles
system.cpu1.dcache.SwapReq_miss_latency::total      9313000                       # number of SwapReq miss cycles
system.cpu1.dcache.SwapReq_accesses::.cpu1.data         2428                       # number of SwapReq accesses(hits+misses)
system.cpu1.dcache.SwapReq_accesses::total         2428                       # number of SwapReq accesses(hits+misses)
system.cpu1.dcache.SwapReq_miss_rate::.cpu1.data     0.703871                       # miss rate for SwapReq accesses
system.cpu1.dcache.SwapReq_miss_rate::total     0.703871                       # miss rate for SwapReq accesses
system.cpu1.dcache.SwapReq_avg_miss_latency::.cpu1.data  5449.385606                       # average SwapReq miss latency
system.cpu1.dcache.SwapReq_avg_miss_latency::total  5449.385606                       # average SwapReq miss latency
system.cpu1.dcache.SwapReq_mshr_misses::.cpu1.data         1709                       # number of SwapReq MSHR misses
system.cpu1.dcache.SwapReq_mshr_misses::total         1709                       # number of SwapReq MSHR misses
system.cpu1.dcache.SwapReq_mshr_miss_latency::.cpu1.data      7604000                       # number of SwapReq MSHR miss cycles
system.cpu1.dcache.SwapReq_mshr_miss_latency::total      7604000                       # number of SwapReq MSHR miss cycles
system.cpu1.dcache.SwapReq_mshr_miss_rate::.cpu1.data     0.703871                       # mshr miss rate for SwapReq accesses
system.cpu1.dcache.SwapReq_mshr_miss_rate::total     0.703871                       # mshr miss rate for SwapReq accesses
system.cpu1.dcache.SwapReq_avg_mshr_miss_latency::.cpu1.data  4449.385606                       # average SwapReq mshr miss latency
system.cpu1.dcache.SwapReq_avg_mshr_miss_latency::total  4449.385606                       # average SwapReq mshr miss latency
system.cpu1.dcache.tags.pwrStateResidencyTicks::UNDEFINED   1124446500                       # Cumulative time (in ticks) in various power states
system.cpu1.dcache.tags.tagsinuse           19.319682                       # Cycle average of tags in use
system.cpu1.dcache.tags.total_refs              65333                       # Total number of references to valid blocks.
system.cpu1.dcache.tags.sampled_refs             7143                       # Sample count of references to valid blocks.
system.cpu1.dcache.tags.avg_refs             9.146437                       # Average number of references to valid blocks.
system.cpu1.dcache.tags.warmup_cycle                0                       # Cycle when the warmup percentage was hit.
system.cpu1.dcache.tags.occ_blocks::.cpu1.data    19.319682                       # Average occupied blocks per requestor
system.cpu1.dcache.tags.occ_percent::.cpu1.data     0.603740                       # Average percentage of cache occupancy
system.cpu1.dcache.tags.occ_percent::total     0.603740                       # Average percentage of cache occupancy
system.cpu1.dcache.tags.occ_task_id_blocks::1024           17                       # Occupied blocks per task id
system.cpu1.dcache.tags.age_task_id_blocks_1024::1           10                       # Occupied blocks per task id
system.cpu1.dcache.tags.age_task_id_blocks_1024::3            7                       # Occupied blocks per task id
system.cpu1.dcache.tags.occ_task_id_percent::1024     0.531250                       # Percentage of cache occupancy per task id
system.cpu1.dcache.tags.tag_accesses           142885                       # Number of tag accesses
system.cpu1.dcache.tags.data_accesses          142885                       # Number of data accesses
system.cpu_clk_domain.clock                       500                       # Clock period in ticks
system.tol2bus.pwrStateResidencyTicks::UNDEFINED   1124446500                       # Cumulative time (in ticks) in various power states
system.tol2bus.trans_dist::ReadResp            129730                       # Transaction distribution
system.tol2bus.trans_dist::ReadRespWithInvalidate           39                       # Transaction distribution
system.tol2bus.trans_dist::WritebackDirty        23884                       # Transaction distribution
system.tol2bus.trans_dist::WritebackClean        92875                       # Transaction distribution
system.tol2bus.trans_dist::CleanEvict            8370                       # Transaction distribution
system.tol2bus.trans_dist::UpgradeReq            7979                       # Transaction distribution
system.tol2bus.trans_dist::SCUpgradeReq          3905                       # Transaction distribution
system.tol2bus.trans_dist::UpgradeResp          11884                       # Transaction distribution
system.tol2bus.trans_dist::SCUpgradeFailReq           24                       # Transaction distribution
system.tol2bus.trans_dist::UpgradeFailResp           24                       # Transaction distribution
system.tol2bus.trans_dist::ReadExReq            16776                       # Transaction distribution
system.tol2bus.trans_dist::ReadExResp           16776                       # Transaction distribution
system.tol2bus.trans_dist::ReadCleanReq         92876                       # Transaction distribution
system.tol2bus.trans_dist::ReadSharedReq        36895                       # Transaction distribution
system.tol2bus.pkt_count_system.cpu0.icache.mem_side::system.l2.cpu_side       171844                       # Packet count per connected master and slave (bytes)
system.tol2bus.pkt_count_system.cpu0.dcache.mem_side::system.l2.cpu_side        89833                       # Packet count per connected master and slave (bytes)
system.tol2bus.pkt_count_system.cpu1.icache.mem_side::system.l2.cpu_side        35766                       # Packet count per connected master and slave (bytes)
system.tol2bus.pkt_count_system.cpu1.dcache.mem_side::system.l2.cpu_side        13099                       # Packet count per connected master and slave (bytes)
system.tol2bus.pkt_count_system.cpu2.icache.mem_side::system.l2.cpu_side        35121                       # Packet count per connected master and slave (bytes)
system.tol2bus.pkt_count_system.cpu2.dcache.mem_side::system.l2.cpu_side        13461                       # Packet count per connected master and slave (bytes)
system.tol2bus.pkt_count_system.cpu3.icache.mem_side::system.l2.cpu_side        35895                       # Packet count per connected master and slave (bytes)
system.tol2bus.pkt_count_system.cpu3.dcache.mem_side::system.l2.cpu_side        13242                       # Packet count per connected master and slave (bytes)
system.tol2bus.pkt_count::total                408261                       # Packet count per connected master and slave (bytes)
system.tol2bus.pkt_size_system.cpu0.icache.mem_side::system.l2.cpu_side      7331968                       # Cumulative packet size per connected master and slave (bytes)
system.tol2bus.pkt_size_system.cpu0.dcache.mem_side::system.l2.cpu_side      3005184                       # Cumulative packet size per connected master and slave (bytes)
system.tol2bus.pkt_size_system.cpu1.icache.mem_side::system.l2.cpu_side      1526016                       # Cumulative packet size per connected master and slave (bytes)
system.tol2bus.pkt_size_system.cpu1.dcache.mem_side::system.l2.cpu_side       145920                       # Cumulative packet size per connected master and slave (bytes)
system.tol2bus.pkt_size_system.cpu2.icache.mem_side::system.l2.cpu_side      1498496                       # Cumulative packet size per connected master and slave (bytes)
system.tol2bus.pkt_size_system.cpu2.dcache.mem_side::system.l2.cpu_side       161280                       # Cumulative packet size per connected master and slave (bytes)
system.tol2bus.pkt_size_system.cpu3.icache.mem_side::system.l2.cpu_side      1531520                       # Cumulative packet size per connected master and slave (bytes)
system.tol2bus.pkt_size_system.cpu3.dcache.mem_side::system.l2.cpu_side       139136                       # Cumulative packet size per connected master and slave (bytes)
system.tol2bus.pkt_size::total               15339520                       # Cumulative packet size per connected master and slave (bytes)
system.tol2bus.snoops                           33776                       # Total snoops (count)
system.tol2bus.snoopTraffic                   1513472                       # Total snoop traffic (bytes)
system.tol2bus.snoop_fanout::samples           158904                       # Request fanout histogram
system.tol2bus.snoop_fanout::mean            0.806695                       # Request fanout histogram
system.tol2bus.snoop_fanout::stdev           0.995990                       # Request fanout histogram
system.tol2bus.snoop_fanout::underflows             0      0.00%      0.00% # Request fanout histogram
system.tol2bus.snoop_fanout::0                  81808     51.48%     51.48% # Request fanout histogram
system.tol2bus.snoop_fanout::1                  41340     26.02%     77.50% # Request fanout histogram
system.tol2bus.snoop_fanout::2                  20421     12.85%     90.35% # Request fanout histogram
system.tol2bus.snoop_fanout::3                  15335      9.65%    100.00% # Request fanout histogram
system.tol2bus.snoop_fanout::4                      0      0.00%    100.00% # Request fanout histogram
system.tol2bus.snoop_fanout::5                      0      0.00%    100.00% # Request fanout histogram
system.tol2bus.snoop_fanout::6                      0      0.00%    100.00% # Request fanout histogram
system.tol2bus.snoop_fanout::7                      0      0.00%    100.00% # Request fanout histogram
system.tol2bus.snoop_fanout::8                      0      0.00%    100.00% # Request fanout histogram
system.tol2bus.snoop_fanout::overflows              0      0.00%    100.00% # Request fanout histogram
system.tol2bus.snoop_fanout::min_value              0                       # Request fanout histogram
system.tol2bus.snoop_fanout::max_value              3                       # Request fanout histogram
system.tol2bus.snoop_fanout::total             158904                       # Request fanout histogram
system.tol2bus.reqLayer0.occupancy          258367765                       # Layer occupancy (ticks)
system.tol2bus.reqLayer0.utilization             23.0                       # Layer utilization (%)
system.tol2bus.respLayer5.occupancy          12399747                       # Layer occupancy (ticks)
system.tol2bus.respLayer5.utilization             1.1                       # Layer utilization (%)
system.tol2bus.respLayer4.occupancy          17632350                       # Layer occupancy (ticks)
system.tol2bus.respLayer4.utilization             1.6                       # Layer utilization (%)
system.tol2bus.respLayer7.occupancy          12067873                       # Layer occupancy (ticks)
system.tol2bus.respLayer7.utilization             1.1                       # Layer utilization (%)
system.tol2bus.respLayer6.occupancy          18055279                       # Layer occupancy (ticks)
system.tol2bus.respLayer6.utilization             1.6                       # Layer utilization (%)
system.tol2bus.respLayer1.occupancy          50267338                       # Layer occupancy (ticks)
system.tol2bus.respLayer1.utilization             4.5                       # Layer utilization (%)
system.tol2bus.respLayer0.occupancy          86252833                       # Layer occupancy (ticks)
system.tol2bus.respLayer0.utilization             7.7                       # Layer utilization (%)
system.tol2bus.respLayer3.occupancy          12183771                       # Layer occupancy (ticks)
system.tol2bus.respLayer3.utilization             1.1                       # Layer utilization (%)
system.tol2bus.respLayer2.occupancy          17984295                       # Layer occupancy (ticks)
system.tol2bus.respLayer2.utilization             1.6                       # Layer utilization (%)

---------- End Simulation Statistics   ----------
