
---------- Begin Simulation Statistics ----------
final_tick                               493168527000                       # Number of ticks from beginning of simulation (restored from checkpoints and never reset)
host_inst_rate                                  68145                       # Simulator instruction rate (inst/s)
host_mem_usage                                 739332                       # Number of bytes of host memory used
host_op_rate                                    68369                       # Simulator op (including micro ops) rate (op/s)
host_seconds                                 18720.64                       # Real time elapsed on the host
host_tick_rate                               26343570                       # Simulator tick rate (ticks/s)
sim_freq                                 1000000000000                       # Frequency of simulated ticks
sim_insts                                  1275713465                       # Number of instructions simulated
sim_ops                                    1279908604                       # Number of ops (including micro ops) simulated
sim_seconds                                  0.493169                       # Number of seconds simulated
sim_ticks                                493168527000                       # Number of ticks simulated
system.cpu0.branchPred.BTBCorrect                   0                       # Number of correct BTB predictions (this stat may not work properly.
system.cpu0.branchPred.BTBHitPct            86.382651                       # BTB Hit Percentage
system.cpu0.branchPred.BTBHits               78130275                       # Number of BTB hits
system.cpu0.branchPred.BTBLookups            90446721                       # Number of BTB lookups
system.cpu0.branchPred.RASInCorrect                 0                       # Number of incorrect RAS predictions.
system.cpu0.branchPred.condIncorrect         16619336                       # Number of conditional branches incorrect
system.cpu0.branchPred.condPredicted         88032949                       # Number of conditional branches predicted
system.cpu0.branchPred.indirectHits           5959654                       # Number of indirect target hits.
system.cpu0.branchPred.indirectLookups        5983304                       # Number of indirect predictor lookups.
system.cpu0.branchPred.indirectMisses           23650                       # Number of indirect misses.
system.cpu0.branchPred.lookups              108803691                       # Number of BP lookups
system.cpu0.branchPred.usedRAS                      0                       # Number of times the RAS was used to get a target.
system.cpu0.branchPredindirectMispredicted        17241                       # Number of mispredicted indirect branches.
system.cpu0.commit.amos                       1048883                       # Number of atomic instructions committed
system.cpu0.commit.branchMispredicts          9585494                       # The number of times a branch was mispredicted
system.cpu0.commit.branches                  52913875                       # Number of branches committed
system.cpu0.commit.bw_lim_events              2274836                       # number cycles where commit BW limit reached
system.cpu0.commit.commitNonSpecStalls        3147131                       # The number of times commit has been forced to stall to communicate backwards
system.cpu0.commit.commitSquashedInsts      181283125                       # The number of squashed insts skipped by commit
system.cpu0.commit.committedInsts           323161023                       # Number of instructions committed
system.cpu0.commit.committedOps             324209888                       # Number of ops (including micro ops) committed
system.cpu0.commit.committed_per_cycle::samples    950714373                       # Number of insts commited each cycle
system.cpu0.commit.committed_per_cycle::mean     0.341017                       # Number of insts commited each cycle
system.cpu0.commit.committed_per_cycle::stdev     0.878919                       # Number of insts commited each cycle
system.cpu0.commit.committed_per_cycle::underflows            0      0.00%      0.00% # Number of insts commited each cycle
system.cpu0.commit.committed_per_cycle::0    771549916     81.15%     81.15% # Number of insts commited each cycle
system.cpu0.commit.committed_per_cycle::1     93415843      9.83%     90.98% # Number of insts commited each cycle
system.cpu0.commit.committed_per_cycle::2     51801190      5.45%     96.43% # Number of insts commited each cycle
system.cpu0.commit.committed_per_cycle::3     23347575      2.46%     98.89% # Number of insts commited each cycle
system.cpu0.commit.committed_per_cycle::4      4314924      0.45%     99.34% # Number of insts commited each cycle
system.cpu0.commit.committed_per_cycle::5      3027779      0.32%     99.66% # Number of insts commited each cycle
system.cpu0.commit.committed_per_cycle::6       324509      0.03%     99.69% # Number of insts commited each cycle
system.cpu0.commit.committed_per_cycle::7       657801      0.07%     99.76% # Number of insts commited each cycle
system.cpu0.commit.committed_per_cycle::8      2274836      0.24%    100.00% # Number of insts commited each cycle
system.cpu0.commit.committed_per_cycle::overflows            0      0.00%    100.00% # Number of insts commited each cycle
system.cpu0.commit.committed_per_cycle::min_value            0                       # Number of insts commited each cycle
system.cpu0.commit.committed_per_cycle::max_value            8                       # Number of insts commited each cycle
system.cpu0.commit.committed_per_cycle::total    950714373                       # Number of insts commited each cycle
system.cpu0.commit.fp_insts                  29884497                       # Number of committed floating point instructions.
system.cpu0.commit.function_calls             8881514                       # Number of function calls committed.
system.cpu0.commit.int_insts                307406652                       # Number of committed integer instructions.
system.cpu0.commit.loads                     38126789                       # Number of loads committed
system.cpu0.commit.membars                    2097775                       # Number of memory barriers committed
system.cpu0.commit.op_class_0::No_OpClass      2097784      0.65%      0.65% # Class of committed instruction
system.cpu0.commit.op_class_0::IntAlu       238049996     73.42%     74.07% # Class of committed instruction
system.cpu0.commit.op_class_0::IntMult          67580      0.02%     74.09% # Class of committed instruction
system.cpu0.commit.op_class_0::IntDiv          131120      0.04%     74.13% # Class of committed instruction
system.cpu0.commit.op_class_0::FloatAdd       8388608      2.59%     76.72% # Class of committed instruction
system.cpu0.commit.op_class_0::FloatCmp      12582918      3.88%     80.60% # Class of committed instruction
system.cpu0.commit.op_class_0::FloatCvt       4456464      1.37%     81.98% # Class of committed instruction
system.cpu0.commit.op_class_0::FloatMult      4194304      1.29%     83.27% # Class of committed instruction
system.cpu0.commit.op_class_0::FloatMultAcc            0      0.00%     83.27% # Class of committed instruction
system.cpu0.commit.op_class_0::FloatDiv             2      0.00%     83.27% # Class of committed instruction
system.cpu0.commit.op_class_0::FloatMisc            6      0.00%     83.27% # Class of committed instruction
system.cpu0.commit.op_class_0::FloatSqrt            0      0.00%     83.27% # Class of committed instruction
system.cpu0.commit.op_class_0::SimdAdd              0      0.00%     83.27% # Class of committed instruction
system.cpu0.commit.op_class_0::SimdAddAcc            0      0.00%     83.27% # Class of committed instruction
system.cpu0.commit.op_class_0::SimdAlu              0      0.00%     83.27% # Class of committed instruction
system.cpu0.commit.op_class_0::SimdCmp              0      0.00%     83.27% # Class of committed instruction
system.cpu0.commit.op_class_0::SimdCvt              0      0.00%     83.27% # Class of committed instruction
system.cpu0.commit.op_class_0::SimdMisc             0      0.00%     83.27% # Class of committed instruction
system.cpu0.commit.op_class_0::SimdMult             0      0.00%     83.27% # Class of committed instruction
system.cpu0.commit.op_class_0::SimdMultAcc            0      0.00%     83.27% # Class of committed instruction
system.cpu0.commit.op_class_0::SimdShift            0      0.00%     83.27% # Class of committed instruction
system.cpu0.commit.op_class_0::SimdShiftAcc            0      0.00%     83.27% # Class of committed instruction
system.cpu0.commit.op_class_0::SimdDiv              0      0.00%     83.27% # Class of committed instruction
system.cpu0.commit.op_class_0::SimdSqrt             0      0.00%     83.27% # Class of committed instruction
system.cpu0.commit.op_class_0::SimdFloatAdd            0      0.00%     83.27% # Class of committed instruction
system.cpu0.commit.op_class_0::SimdFloatAlu            0      0.00%     83.27% # Class of committed instruction
system.cpu0.commit.op_class_0::SimdFloatCmp            0      0.00%     83.27% # Class of committed instruction
system.cpu0.commit.op_class_0::SimdFloatCvt            0      0.00%     83.27% # Class of committed instruction
system.cpu0.commit.op_class_0::SimdFloatDiv            0      0.00%     83.27% # Class of committed instruction
system.cpu0.commit.op_class_0::SimdFloatMisc            0      0.00%     83.27% # Class of committed instruction
system.cpu0.commit.op_class_0::SimdFloatMult            0      0.00%     83.27% # Class of committed instruction
system.cpu0.commit.op_class_0::SimdFloatMultAcc            0      0.00%     83.27% # Class of committed instruction
system.cpu0.commit.op_class_0::SimdFloatSqrt            0      0.00%     83.27% # Class of committed instruction
system.cpu0.commit.op_class_0::SimdReduceAdd            0      0.00%     83.27% # Class of committed instruction
system.cpu0.commit.op_class_0::SimdReduceAlu            0      0.00%     83.27% # Class of committed instruction
system.cpu0.commit.op_class_0::SimdReduceCmp            0      0.00%     83.27% # Class of committed instruction
system.cpu0.commit.op_class_0::SimdFloatReduceAdd            0      0.00%     83.27% # Class of committed instruction
system.cpu0.commit.op_class_0::SimdFloatReduceCmp            0      0.00%     83.27% # Class of committed instruction
system.cpu0.commit.op_class_0::SimdAes              0      0.00%     83.27% # Class of committed instruction
system.cpu0.commit.op_class_0::SimdAesMix            0      0.00%     83.27% # Class of committed instruction
system.cpu0.commit.op_class_0::SimdSha1Hash            0      0.00%     83.27% # Class of committed instruction
system.cpu0.commit.op_class_0::SimdSha1Hash2            0      0.00%     83.27% # Class of committed instruction
system.cpu0.commit.op_class_0::SimdSha256Hash            0      0.00%     83.27% # Class of committed instruction
system.cpu0.commit.op_class_0::SimdSha256Hash2            0      0.00%     83.27% # Class of committed instruction
system.cpu0.commit.op_class_0::SimdShaSigma2            0      0.00%     83.27% # Class of committed instruction
system.cpu0.commit.op_class_0::SimdShaSigma3            0      0.00%     83.27% # Class of committed instruction
system.cpu0.commit.op_class_0::SimdPredAlu            0      0.00%     83.27% # Class of committed instruction
system.cpu0.commit.op_class_0::MemRead       38913506     12.00%     95.27% # Class of committed instruction
system.cpu0.commit.op_class_0::MemWrite      15065405      4.65%     99.92% # Class of committed instruction
system.cpu0.commit.op_class_0::FloatMemRead       262166      0.08%    100.00% # Class of committed instruction
system.cpu0.commit.op_class_0::FloatMemWrite           29      0.00%    100.00% # Class of committed instruction
system.cpu0.commit.op_class_0::IprAccess            0      0.00%    100.00% # Class of committed instruction
system.cpu0.commit.op_class_0::InstPrefetch            0      0.00%    100.00% # Class of committed instruction
system.cpu0.commit.op_class_0::total        324209888                       # Class of committed instruction
system.cpu0.commit.refs                      54241106                       # Number of memory references committed
system.cpu0.commit.swp_count                        0                       # Number of s/w prefetches committed
system.cpu0.commit.vec_insts                        0                       # Number of committed Vector instructions.
system.cpu0.committedInsts                  323161023                       # Number of Instructions Simulated
system.cpu0.committedOps                    324209888                       # Number of Ops (including micro ops) Simulated
system.cpu0.cpi                              3.027981                       # CPI: Cycles Per Instruction
system.cpu0.cpi_total                        3.027981                       # CPI: Total CPI of All Threads
system.cpu0.decode.BlockedCycles            575362316                       # Number of cycles decode is blocked
system.cpu0.decode.BranchMispred              7037690                       # Number of times decode detected a branch misprediction
system.cpu0.decode.BranchResolved            69022658                       # Number of times decode resolved a branch
system.cpu0.decode.DecodedInsts             548069159                       # Number of instructions handled by decode
system.cpu0.decode.IdleCycles                96379169                       # Number of cycles decode is idle
system.cpu0.decode.RunCycles                286697507                       # Number of cycles decode is running
system.cpu0.decode.SquashCycles               9586931                       # Number of cycles decode is squashing
system.cpu0.decode.SquashedInsts             13949848                       # Number of squashed instructions handled by decode
system.cpu0.decode.UnblockCycles              9277626                       # Number of cycles decode is unblocking
system.cpu0.dtb.accesses                            0                       # DTB accesses
system.cpu0.dtb.hits                                0                       # DTB hits
system.cpu0.dtb.misses                              0                       # DTB misses
system.cpu0.dtb.read_accesses                       0                       # DTB read accesses
system.cpu0.dtb.read_hits                           0                       # DTB read hits
system.cpu0.dtb.read_misses                         0                       # DTB read misses
system.cpu0.dtb.write_accesses                      0                       # DTB write accesses
system.cpu0.dtb.write_hits                          0                       # DTB write hits
system.cpu0.dtb.write_misses                        0                       # DTB write misses
system.cpu0.fetch.Branches                  108803691                       # Number of branches that fetch encountered
system.cpu0.fetch.CacheLines                 74833029                       # Number of cache lines fetched
system.cpu0.fetch.Cycles                    875557755                       # Number of cycles fetch has run and was not squashing or blocked
system.cpu0.fetch.IcacheSquashes              1142232                       # Number of outstanding Icache misses that were squashed
system.cpu0.fetch.IcacheWaitRetryStallCycles          116                       # Number of stall cycles due to full MSHR
system.cpu0.fetch.Insts                     613070271                       # Number of instructions fetch has processed
system.cpu0.fetch.MiscStallCycles                  12                       # Number of cycles fetch has spent waiting on interrupts, or bad addresses, or out of MSHRs
system.cpu0.fetch.PendingTrapStallCycles            8                       # Number of stall cycles due to pending traps
system.cpu0.fetch.SquashCycles               33241548                       # Number of cycles fetch has spent squashing
system.cpu0.fetch.branchRate                 0.111191                       # Number of branch fetches per cycle
system.cpu0.fetch.icacheStallCycles          85124884                       # Number of cycles fetch is stalled on an Icache miss
system.cpu0.fetch.predictedBranches          84089929                       # Number of branches that fetch has predicted taken
system.cpu0.fetch.rate                       0.626525                       # Number of inst fetches per cycle
system.cpu0.fetch.rateDist::samples         977303549                       # Number of instructions fetched each cycle (Total)
system.cpu0.fetch.rateDist::mean             0.628381                       # Number of instructions fetched each cycle (Total)
system.cpu0.fetch.rateDist::stdev            1.105563                       # Number of instructions fetched each cycle (Total)
system.cpu0.fetch.rateDist::underflows              0      0.00%      0.00% # Number of instructions fetched each cycle (Total)
system.cpu0.fetch.rateDist::0               624022001     63.85%     63.85% # Number of instructions fetched each cycle (Total)
system.cpu0.fetch.rateDist::1               214074544     21.90%     85.76% # Number of instructions fetched each cycle (Total)
system.cpu0.fetch.rateDist::2                78066489      7.99%     93.74% # Number of instructions fetched each cycle (Total)
system.cpu0.fetch.rateDist::3                30393402      3.11%     96.85% # Number of instructions fetched each cycle (Total)
system.cpu0.fetch.rateDist::4                11364569      1.16%     98.02% # Number of instructions fetched each cycle (Total)
system.cpu0.fetch.rateDist::5                 9084631      0.93%     98.95% # Number of instructions fetched each cycle (Total)
system.cpu0.fetch.rateDist::6                10264295      1.05%    100.00% # Number of instructions fetched each cycle (Total)
system.cpu0.fetch.rateDist::7                    4496      0.00%    100.00% # Number of instructions fetched each cycle (Total)
system.cpu0.fetch.rateDist::8                   29122      0.00%    100.00% # Number of instructions fetched each cycle (Total)
system.cpu0.fetch.rateDist::overflows               0      0.00%    100.00% # Number of instructions fetched each cycle (Total)
system.cpu0.fetch.rateDist::min_value               0                       # Number of instructions fetched each cycle (Total)
system.cpu0.fetch.rateDist::max_value               8                       # Number of instructions fetched each cycle (Total)
system.cpu0.fetch.rateDist::total           977303549                       # Number of instructions fetched each cycle (Total)
system.cpu0.fp_regfile_reads                 67179832                       # number of floating regfile reads
system.cpu0.fp_regfile_writes                20797113                       # number of floating regfile writes
system.cpu0.idleCycles                        1221735                       # Total number of cycles that the CPU has spent unscheduled due to idling
system.cpu0.iew.branchMispredicts            10590009                       # Number of branch mispredicts detected at execute
system.cpu0.iew.exec_branches                75761216                       # Number of branches executed
system.cpu0.iew.exec_nop                            0                       # number of nop insts executed
system.cpu0.iew.exec_rate                    0.471954                       # Inst execution rate
system.cpu0.iew.exec_refs                    79069304                       # number of memory reference insts executed
system.cpu0.iew.exec_stores                  21036135                       # Number of stores executed
system.cpu0.iew.exec_swp                            0                       # number of swp insts executed
system.cpu0.iew.iewBlockCycles              530589895                       # Number of cycles IEW is blocking
system.cpu0.iew.iewDispLoadInsts             60889025                       # Number of dispatched load instructions
system.cpu0.iew.iewDispNonSpecInsts           1050013                       # Number of dispatched non-speculative instructions
system.cpu0.iew.iewDispSquashedInsts          3392048                       # Number of squashed instructions skipped by dispatch
system.cpu0.iew.iewDispStoreInsts            25695996                       # Number of dispatched store instructions
system.cpu0.iew.iewDispatchedInsts          505484825                       # Number of instructions dispatched to IQ
system.cpu0.iew.iewExecLoadInsts             58033169                       # Number of load instructions executed
system.cpu0.iew.iewExecSquashedInsts          9588825                       # Number of squashed instructions skipped in execute
system.cpu0.iew.iewExecutedInsts            461819169                       # Number of executed instructions
system.cpu0.iew.iewIQFullEvents               1381457                       # Number of times the IQ has become full, causing a stall
system.cpu0.iew.iewIdleCycles                       0                       # Number of cycles IEW is idle
system.cpu0.iew.iewLSQFullEvents              1314807                       # Number of times the LSQ has become full, causing a stall
system.cpu0.iew.iewSquashCycles               9586931                       # Number of cycles IEW is squashing
system.cpu0.iew.iewUnblockCycles              5232691                       # Number of cycles IEW is unblocking
system.cpu0.iew.lsq.thread0.blockedLoads            0                       # Number of blocked loads due to partial load-store forwarding
system.cpu0.iew.lsq.thread0.cacheBlocked        73895                       # Number of times an access to memory failed due to the cache being blocked
system.cpu0.iew.lsq.thread0.forwLoads         2756086                       # Number of loads that had data forwarded from stores
system.cpu0.iew.lsq.thread0.ignoredResponses        24629                       # Number of memory responses ignored because the instruction is squashed
system.cpu0.iew.lsq.thread0.invAddrLoads            0                       # Number of loads ignored due to an invalid address
system.cpu0.iew.lsq.thread0.invAddrSwpfs            0                       # Number of software prefetches ignored due to an invalid address
system.cpu0.iew.lsq.thread0.memOrderViolation         3215                       # Number of memory ordering violations
system.cpu0.iew.lsq.thread0.rescheduledLoads         1078                       # Number of loads that were rescheduled
system.cpu0.iew.lsq.thread0.squashedLoads     22762236                       # Number of loads squashed
system.cpu0.iew.lsq.thread0.squashedStores      9581679                       # Number of stores squashed
system.cpu0.iew.memOrderViolationEvents          3215                       # Number of memory order violations
system.cpu0.iew.predictedNotTakenIncorrect      1134954                       # Number of branches that were predicted not taken incorrectly
system.cpu0.iew.predictedTakenIncorrect       9455055                       # Number of branches that were predicted taken incorrectly
system.cpu0.iew.wb_consumers                341352244                       # num instructions consuming a value
system.cpu0.iew.wb_count                    457264017                       # cumulative count of insts written-back
system.cpu0.iew.wb_fanout                    0.816265                       # average fanout of values written-back
system.cpu0.iew.wb_producers                278634051                       # num instructions producing a value
system.cpu0.iew.wb_rate                      0.467299                       # insts written-back per cycle
system.cpu0.iew.wb_sent                     457917753                       # cumulative count of insts sent to commit
system.cpu0.int_regfile_reads               535645189                       # number of integer regfile reads
system.cpu0.int_regfile_writes              345661070                       # number of integer regfile writes
system.cpu0.ipc                              0.330253                       # IPC: Instructions Per Cycle
system.cpu0.ipc_total                        0.330253                       # IPC: Total IPC of All Threads
system.cpu0.iq.FU_type_0::No_OpClass          2097934      0.45%      0.45% # Type of FU issued
system.cpu0.iq.FU_type_0::IntAlu            349465753     74.13%     74.58% # Type of FU issued
system.cpu0.iq.FU_type_0::IntMult               67645      0.01%     74.59% # Type of FU issued
system.cpu0.iq.FU_type_0::IntDiv               131190      0.03%     74.62% # Type of FU issued
system.cpu0.iq.FU_type_0::FloatAdd           10138444      2.15%     76.77% # Type of FU issued
system.cpu0.iq.FU_type_0::FloatCmp           18388719      3.90%     80.67% # Type of FU issued
system.cpu0.iq.FU_type_0::FloatCvt            5392744      1.14%     81.81% # Type of FU issued
system.cpu0.iq.FU_type_0::FloatMult           5067205      1.07%     82.89% # Type of FU issued
system.cpu0.iq.FU_type_0::FloatMultAcc              0      0.00%     82.89% # Type of FU issued
system.cpu0.iq.FU_type_0::FloatDiv                  2      0.00%     82.89% # Type of FU issued
system.cpu0.iq.FU_type_0::FloatMisc                 6      0.00%     82.89% # Type of FU issued
system.cpu0.iq.FU_type_0::FloatSqrt                 0      0.00%     82.89% # Type of FU issued
system.cpu0.iq.FU_type_0::SimdAdd                   0      0.00%     82.89% # Type of FU issued
system.cpu0.iq.FU_type_0::SimdAddAcc                0      0.00%     82.89% # Type of FU issued
system.cpu0.iq.FU_type_0::SimdAlu                   0      0.00%     82.89% # Type of FU issued
system.cpu0.iq.FU_type_0::SimdCmp                   0      0.00%     82.89% # Type of FU issued
system.cpu0.iq.FU_type_0::SimdCvt                   0      0.00%     82.89% # Type of FU issued
system.cpu0.iq.FU_type_0::SimdMisc                  0      0.00%     82.89% # Type of FU issued
system.cpu0.iq.FU_type_0::SimdMult                  0      0.00%     82.89% # Type of FU issued
system.cpu0.iq.FU_type_0::SimdMultAcc               0      0.00%     82.89% # Type of FU issued
system.cpu0.iq.FU_type_0::SimdShift                 0      0.00%     82.89% # Type of FU issued
system.cpu0.iq.FU_type_0::SimdShiftAcc              0      0.00%     82.89% # Type of FU issued
system.cpu0.iq.FU_type_0::SimdDiv                   0      0.00%     82.89% # Type of FU issued
system.cpu0.iq.FU_type_0::SimdSqrt                  0      0.00%     82.89% # Type of FU issued
system.cpu0.iq.FU_type_0::SimdFloatAdd              0      0.00%     82.89% # Type of FU issued
system.cpu0.iq.FU_type_0::SimdFloatAlu              0      0.00%     82.89% # Type of FU issued
system.cpu0.iq.FU_type_0::SimdFloatCmp              0      0.00%     82.89% # Type of FU issued
system.cpu0.iq.FU_type_0::SimdFloatCvt              0      0.00%     82.89% # Type of FU issued
system.cpu0.iq.FU_type_0::SimdFloatDiv              0      0.00%     82.89% # Type of FU issued
system.cpu0.iq.FU_type_0::SimdFloatMisc             0      0.00%     82.89% # Type of FU issued
system.cpu0.iq.FU_type_0::SimdFloatMult             0      0.00%     82.89% # Type of FU issued
system.cpu0.iq.FU_type_0::SimdFloatMultAcc            0      0.00%     82.89% # Type of FU issued
system.cpu0.iq.FU_type_0::SimdFloatSqrt             0      0.00%     82.89% # Type of FU issued
system.cpu0.iq.FU_type_0::SimdReduceAdd             0      0.00%     82.89% # Type of FU issued
system.cpu0.iq.FU_type_0::SimdReduceAlu             0      0.00%     82.89% # Type of FU issued
system.cpu0.iq.FU_type_0::SimdReduceCmp             0      0.00%     82.89% # Type of FU issued
system.cpu0.iq.FU_type_0::SimdFloatReduceAdd            0      0.00%     82.89% # Type of FU issued
system.cpu0.iq.FU_type_0::SimdFloatReduceCmp            0      0.00%     82.89% # Type of FU issued
system.cpu0.iq.FU_type_0::SimdAes                   0      0.00%     82.89% # Type of FU issued
system.cpu0.iq.FU_type_0::SimdAesMix                0      0.00%     82.89% # Type of FU issued
system.cpu0.iq.FU_type_0::SimdSha1Hash              0      0.00%     82.89% # Type of FU issued
system.cpu0.iq.FU_type_0::SimdSha1Hash2             0      0.00%     82.89% # Type of FU issued
system.cpu0.iq.FU_type_0::SimdSha256Hash            0      0.00%     82.89% # Type of FU issued
system.cpu0.iq.FU_type_0::SimdSha256Hash2            0      0.00%     82.89% # Type of FU issued
system.cpu0.iq.FU_type_0::SimdShaSigma2             0      0.00%     82.89% # Type of FU issued
system.cpu0.iq.FU_type_0::SimdShaSigma3             0      0.00%     82.89% # Type of FU issued
system.cpu0.iq.FU_type_0::SimdPredAlu               0      0.00%     82.89% # Type of FU issued
system.cpu0.iq.FU_type_0::MemRead            59821134     12.69%     95.58% # Type of FU issued
system.cpu0.iq.FU_type_0::MemWrite           20575015      4.36%     99.94% # Type of FU issued
system.cpu0.iq.FU_type_0::FloatMemRead         262175      0.06%    100.00% # Type of FU issued
system.cpu0.iq.FU_type_0::FloatMemWrite            29      0.00%    100.00% # Type of FU issued
system.cpu0.iq.FU_type_0::IprAccess                 0      0.00%    100.00% # Type of FU issued
system.cpu0.iq.FU_type_0::InstPrefetch              0      0.00%    100.00% # Type of FU issued
system.cpu0.iq.FU_type_0::total             471407995                       # Type of FU issued
system.cpu0.iq.fp_alu_accesses               39251842                       # Number of floating point alu accesses
system.cpu0.iq.fp_inst_queue_reads           78501166                       # Number of floating instruction queue reads
system.cpu0.iq.fp_inst_queue_wakeup_accesses     39185682                       # Number of floating instruction queue wakeup accesses
system.cpu0.iq.fp_inst_queue_writes          54899009                       # Number of floating instruction queue writes
system.cpu0.iq.fu_busy_cnt                    3398157                       # FU busy when requested
system.cpu0.iq.fu_busy_rate                  0.007209                       # FU busy rate (busy events/executed inst)
system.cpu0.iq.fu_full::No_OpClass                  0      0.00%      0.00% # attempts to use FU when none available
system.cpu0.iq.fu_full::IntAlu                3007224     88.50%     88.50% # attempts to use FU when none available
system.cpu0.iq.fu_full::IntMult                  1114      0.03%     88.53% # attempts to use FU when none available
system.cpu0.iq.fu_full::IntDiv                  13035      0.38%     88.91% # attempts to use FU when none available
system.cpu0.iq.fu_full::FloatAdd                 1253      0.04%     88.95% # attempts to use FU when none available
system.cpu0.iq.fu_full::FloatCmp                 1258      0.04%     88.99% # attempts to use FU when none available
system.cpu0.iq.fu_full::FloatCvt                    1      0.00%     88.99% # attempts to use FU when none available
system.cpu0.iq.fu_full::FloatMult                   0      0.00%     88.99% # attempts to use FU when none available
system.cpu0.iq.fu_full::FloatMultAcc                0      0.00%     88.99% # attempts to use FU when none available
system.cpu0.iq.fu_full::FloatDiv                    0      0.00%     88.99% # attempts to use FU when none available
system.cpu0.iq.fu_full::FloatMisc                   0      0.00%     88.99% # attempts to use FU when none available
system.cpu0.iq.fu_full::FloatSqrt                   0      0.00%     88.99% # attempts to use FU when none available
system.cpu0.iq.fu_full::SimdAdd                     0      0.00%     88.99% # attempts to use FU when none available
system.cpu0.iq.fu_full::SimdAddAcc                  0      0.00%     88.99% # attempts to use FU when none available
system.cpu0.iq.fu_full::SimdAlu                     0      0.00%     88.99% # attempts to use FU when none available
system.cpu0.iq.fu_full::SimdCmp                     0      0.00%     88.99% # attempts to use FU when none available
system.cpu0.iq.fu_full::SimdCvt                     0      0.00%     88.99% # attempts to use FU when none available
system.cpu0.iq.fu_full::SimdMisc                    0      0.00%     88.99% # attempts to use FU when none available
system.cpu0.iq.fu_full::SimdMult                    0      0.00%     88.99% # attempts to use FU when none available
system.cpu0.iq.fu_full::SimdMultAcc                 0      0.00%     88.99% # attempts to use FU when none available
system.cpu0.iq.fu_full::SimdShift                   0      0.00%     88.99% # attempts to use FU when none available
system.cpu0.iq.fu_full::SimdShiftAcc                0      0.00%     88.99% # attempts to use FU when none available
system.cpu0.iq.fu_full::SimdDiv                     0      0.00%     88.99% # attempts to use FU when none available
system.cpu0.iq.fu_full::SimdSqrt                    0      0.00%     88.99% # attempts to use FU when none available
system.cpu0.iq.fu_full::SimdFloatAdd                0      0.00%     88.99% # attempts to use FU when none available
system.cpu0.iq.fu_full::SimdFloatAlu                0      0.00%     88.99% # attempts to use FU when none available
system.cpu0.iq.fu_full::SimdFloatCmp                0      0.00%     88.99% # attempts to use FU when none available
system.cpu0.iq.fu_full::SimdFloatCvt                0      0.00%     88.99% # attempts to use FU when none available
system.cpu0.iq.fu_full::SimdFloatDiv                0      0.00%     88.99% # attempts to use FU when none available
system.cpu0.iq.fu_full::SimdFloatMisc               0      0.00%     88.99% # attempts to use FU when none available
system.cpu0.iq.fu_full::SimdFloatMult               0      0.00%     88.99% # attempts to use FU when none available
system.cpu0.iq.fu_full::SimdFloatMultAcc            0      0.00%     88.99% # attempts to use FU when none available
system.cpu0.iq.fu_full::SimdFloatSqrt               0      0.00%     88.99% # attempts to use FU when none available
system.cpu0.iq.fu_full::SimdReduceAdd               0      0.00%     88.99% # attempts to use FU when none available
system.cpu0.iq.fu_full::SimdReduceAlu               0      0.00%     88.99% # attempts to use FU when none available
system.cpu0.iq.fu_full::SimdReduceCmp               0      0.00%     88.99% # attempts to use FU when none available
system.cpu0.iq.fu_full::SimdFloatReduceAdd            0      0.00%     88.99% # attempts to use FU when none available
system.cpu0.iq.fu_full::SimdFloatReduceCmp            0      0.00%     88.99% # attempts to use FU when none available
system.cpu0.iq.fu_full::SimdAes                     0      0.00%     88.99% # attempts to use FU when none available
system.cpu0.iq.fu_full::SimdAesMix                  0      0.00%     88.99% # attempts to use FU when none available
system.cpu0.iq.fu_full::SimdSha1Hash                0      0.00%     88.99% # attempts to use FU when none available
system.cpu0.iq.fu_full::SimdSha1Hash2               0      0.00%     88.99% # attempts to use FU when none available
system.cpu0.iq.fu_full::SimdSha256Hash              0      0.00%     88.99% # attempts to use FU when none available
system.cpu0.iq.fu_full::SimdSha256Hash2             0      0.00%     88.99% # attempts to use FU when none available
system.cpu0.iq.fu_full::SimdShaSigma2               0      0.00%     88.99% # attempts to use FU when none available
system.cpu0.iq.fu_full::SimdShaSigma3               0      0.00%     88.99% # attempts to use FU when none available
system.cpu0.iq.fu_full::SimdPredAlu                 0      0.00%     88.99% # attempts to use FU when none available
system.cpu0.iq.fu_full::MemRead                350798     10.32%     99.31% # attempts to use FU when none available
system.cpu0.iq.fu_full::MemWrite                23468      0.69%    100.00% # attempts to use FU when none available
system.cpu0.iq.fu_full::FloatMemRead                2      0.00%    100.00% # attempts to use FU when none available
system.cpu0.iq.fu_full::FloatMemWrite               4      0.00%    100.00% # attempts to use FU when none available
system.cpu0.iq.fu_full::IprAccess                   0      0.00%    100.00% # attempts to use FU when none available
system.cpu0.iq.fu_full::InstPrefetch                0      0.00%    100.00% # attempts to use FU when none available
system.cpu0.iq.int_alu_accesses             433456376                       # Number of integer alu accesses
system.cpu0.iq.int_inst_queue_reads        1846909885                       # Number of integer instruction queue reads
system.cpu0.iq.int_inst_queue_wakeup_accesses    418078335                       # Number of integer instruction queue wakeup accesses
system.cpu0.iq.int_inst_queue_writes        631862454                       # Number of integer instruction queue writes
system.cpu0.iq.iqInstsAdded                 502336921                       # Number of instructions added to the IQ (excludes non-spec)
system.cpu0.iq.iqInstsIssued                471407995                       # Number of instructions issued
system.cpu0.iq.iqNonSpecInstsAdded            3147904                       # Number of non-speculative instructions added to the IQ
system.cpu0.iq.iqSquashedInstsExamined      181274933                       # Number of squashed instructions iterated over during squash; mainly for profiling
system.cpu0.iq.iqSquashedInstsIssued          1893356                       # Number of squashed instructions issued
system.cpu0.iq.iqSquashedNonSpecRemoved           773                       # Number of squashed non-spec instructions that were removed
system.cpu0.iq.iqSquashedOperandsExamined     59921773                       # Number of squashed operands that are examined and possibly removed from graph
system.cpu0.iq.issued_per_cycle::samples    977303549                       # Number of insts issued each cycle
system.cpu0.iq.issued_per_cycle::mean        0.482356                       # Number of insts issued each cycle
system.cpu0.iq.issued_per_cycle::stdev       1.004473                       # Number of insts issued each cycle
system.cpu0.iq.issued_per_cycle::underflows            0      0.00%      0.00% # Number of insts issued each cycle
system.cpu0.iq.issued_per_cycle::0          705087478     72.15%     72.15% # Number of insts issued each cycle
system.cpu0.iq.issued_per_cycle::1          161475913     16.52%     88.67% # Number of insts issued each cycle
system.cpu0.iq.issued_per_cycle::2           68208024      6.98%     95.65% # Number of insts issued each cycle
system.cpu0.iq.issued_per_cycle::3           19135640      1.96%     97.61% # Number of insts issued each cycle
system.cpu0.iq.issued_per_cycle::4           11093609      1.14%     98.74% # Number of insts issued each cycle
system.cpu0.iq.issued_per_cycle::5            6013027      0.62%     99.36% # Number of insts issued each cycle
system.cpu0.iq.issued_per_cycle::6            3144100      0.32%     99.68% # Number of insts issued each cycle
system.cpu0.iq.issued_per_cycle::7            2361121      0.24%     99.92% # Number of insts issued each cycle
system.cpu0.iq.issued_per_cycle::8             784637      0.08%    100.00% # Number of insts issued each cycle
system.cpu0.iq.issued_per_cycle::overflows            0      0.00%    100.00% # Number of insts issued each cycle
system.cpu0.iq.issued_per_cycle::min_value            0                       # Number of insts issued each cycle
system.cpu0.iq.issued_per_cycle::max_value            8                       # Number of insts issued each cycle
system.cpu0.iq.issued_per_cycle::total      977303549                       # Number of insts issued each cycle
system.cpu0.iq.rate                          0.481754                       # Inst issue rate
system.cpu0.iq.vec_alu_accesses                     0                       # Number of vector alu accesses
system.cpu0.iq.vec_inst_queue_reads                 0                       # Number of vector instruction queue reads
system.cpu0.iq.vec_inst_queue_wakeup_accesses            0                       # Number of vector instruction queue wakeup accesses
system.cpu0.iq.vec_inst_queue_writes                0                       # Number of vector instruction queue writes
system.cpu0.itb.accesses                            0                       # DTB accesses
system.cpu0.itb.hits                                0                       # DTB hits
system.cpu0.itb.misses                              0                       # DTB misses
system.cpu0.itb.read_accesses                       0                       # DTB read accesses
system.cpu0.itb.read_hits                           0                       # DTB read hits
system.cpu0.itb.read_misses                         0                       # DTB read misses
system.cpu0.itb.write_accesses                      0                       # DTB write accesses
system.cpu0.itb.write_hits                          0                       # DTB write hits
system.cpu0.itb.write_misses                        0                       # DTB write misses
system.cpu0.memDep0.conflictingLoads          9312671                       # Number of conflicting loads.
system.cpu0.memDep0.conflictingStores         3135007                       # Number of conflicting stores.
system.cpu0.memDep0.insertedLoads            60889025                       # Number of loads inserted to the mem dependence unit.
system.cpu0.memDep0.insertedStores           25695996                       # Number of stores inserted to the mem dependence unit.
system.cpu0.misc_regfile_reads               59196422                       # number of misc regfile reads
system.cpu0.misc_regfile_writes              29622302                       # number of misc regfile writes
system.cpu0.numCycles                       978525284                       # number of cpu cycles simulated
system.cpu0.numWorkItemsCompleted                   0                       # number of work items this cpu completed
system.cpu0.numWorkItemsStarted                     0                       # number of work items this cpu started
system.cpu0.quiesceCycles                     7811772                       # Total number of cycles that CPU has spent quiesced or waiting for an interrupt
system.cpu0.rename.BlockCycles              553139200                       # Number of cycles rename is blocking
system.cpu0.rename.CommittedMaps            258572191                       # Number of HB maps that are committed
system.cpu0.rename.IQFullEvents              11315862                       # Number of times rename has blocked due to IQ full
system.cpu0.rename.IdleCycles               113554198                       # Number of cycles rename is idle
system.cpu0.rename.LQFullEvents                774077                       # Number of times rename has blocked due to LQ full
system.cpu0.rename.ROBFullEvents                32928                       # Number of times rename has blocked due to ROB full
system.cpu0.rename.RenameLookups            695009188                       # Number of register rename lookups that rename has made
system.cpu0.rename.RenamedInsts             529714794                       # Number of instructions processed by rename
system.cpu0.rename.RenamedOperands          418595884                       # Number of destination operands rename has renamed
system.cpu0.rename.RunCycles                276745167                       # Number of cycles rename is running
system.cpu0.rename.SQFullEvents               9571708                       # Number of times rename has blocked due to SQ full
system.cpu0.rename.SquashCycles               9586931                       # Number of cycles rename is squashing
system.cpu0.rename.UnblockCycles             24255236                       # Number of cycles rename is unblocking
system.cpu0.rename.UndoneMaps               160023688                       # Number of HB maps that are undone due to squashing
system.cpu0.rename.fp_rename_lookups         72950268                       # Number of floating rename lookups
system.cpu0.rename.int_rename_lookups       622058920                       # Number of integer rename lookups
system.cpu0.rename.serializeStallCycles         22817                       # count of cycles rename stalled for serializing inst
system.cpu0.rename.serializingInsts               579                       # count of serializing insts renamed
system.cpu0.rename.skidInsts                 26909306                       # count of insts added to the skid buffer
system.cpu0.rename.tempSerializingInsts           576                       # count of temporary serializing insts renamed
system.cpu0.rob.rob_reads                  1453930782                       # The number of ROB reads
system.cpu0.rob.rob_writes                 1037581073                       # The number of ROB writes
system.cpu0.timesIdled                          31677                       # Number of times that the entire CPU went into an idle state and unscheduled itself
system.cpu0.workload.numSyscalls                  145                       # Number of system calls
system.cpu1.branchPred.BTBCorrect                   0                       # Number of correct BTB predictions (this stat may not work properly.
system.cpu1.branchPred.BTBHitPct            86.486057                       # BTB Hit Percentage
system.cpu1.branchPred.BTBHits               78651129                       # Number of BTB hits
system.cpu1.branchPred.BTBLookups            90940820                       # Number of BTB lookups
system.cpu1.branchPred.RASInCorrect                 0                       # Number of incorrect RAS predictions.
system.cpu1.branchPred.condIncorrect         16772178                       # Number of conditional branches incorrect
system.cpu1.branchPred.condPredicted         88826499                       # Number of conditional branches predicted
system.cpu1.branchPred.indirectHits           5828549                       # Number of indirect target hits.
system.cpu1.branchPred.indirectLookups        5848559                       # Number of indirect predictor lookups.
system.cpu1.branchPred.indirectMisses           20010                       # Number of indirect misses.
system.cpu1.branchPred.lookups              109848477                       # Number of BP lookups
system.cpu1.branchPred.usedRAS                      0                       # Number of times the RAS was used to get a target.
system.cpu1.branchPredindirectMispredicted        15042                       # Number of mispredicted indirect branches.
system.cpu1.commit.amos                       1048693                       # Number of atomic instructions committed
system.cpu1.commit.branchMispredicts          9782107                       # The number of times a branch was mispredicted
system.cpu1.commit.branches                  53078037                       # Number of branches committed
system.cpu1.commit.bw_lim_events              1831445                       # number cycles where commit BW limit reached
system.cpu1.commit.commitNonSpecStalls        3146330                       # The number of times commit has been forced to stall to communicate backwards
system.cpu1.commit.commitSquashedInsts      182889100                       # The number of squashed insts skipped by commit
system.cpu1.commit.committedInsts           319263771                       # Number of instructions committed
system.cpu1.commit.committedOps             320312524                       # Number of ops (including micro ops) committed
system.cpu1.commit.committed_per_cycle::samples    941901659                       # Number of insts commited each cycle
system.cpu1.commit.committed_per_cycle::mean     0.340070                       # Number of insts commited each cycle
system.cpu1.commit.committed_per_cycle::stdev     0.864148                       # Number of insts commited each cycle
system.cpu1.commit.committed_per_cycle::underflows            0      0.00%      0.00% # Number of insts commited each cycle
system.cpu1.commit.committed_per_cycle::0    762869148     80.99%     80.99% # Number of insts commited each cycle
system.cpu1.commit.committed_per_cycle::1     93829288      9.96%     90.95% # Number of insts commited each cycle
system.cpu1.commit.committed_per_cycle::2     51776607      5.50%     96.45% # Number of insts commited each cycle
system.cpu1.commit.committed_per_cycle::3     23557573      2.50%     98.95% # Number of insts commited each cycle
system.cpu1.commit.committed_per_cycle::4      4135136      0.44%     99.39% # Number of insts commited each cycle
system.cpu1.commit.committed_per_cycle::5      3011073      0.32%     99.71% # Number of insts commited each cycle
system.cpu1.commit.committed_per_cycle::6       229889      0.02%     99.74% # Number of insts commited each cycle
system.cpu1.commit.committed_per_cycle::7       661500      0.07%     99.81% # Number of insts commited each cycle
system.cpu1.commit.committed_per_cycle::8      1831445      0.19%    100.00% # Number of insts commited each cycle
system.cpu1.commit.committed_per_cycle::overflows            0      0.00%    100.00% # Number of insts commited each cycle
system.cpu1.commit.committed_per_cycle::min_value            0                       # Number of insts commited each cycle
system.cpu1.commit.committed_per_cycle::max_value            8                       # Number of insts commited each cycle
system.cpu1.commit.committed_per_cycle::total    941901659                       # Number of insts commited each cycle
system.cpu1.commit.fp_insts                  29884444                       # Number of committed floating point instructions.
system.cpu1.commit.function_calls             8621963                       # Number of function calls committed.
system.cpu1.commit.int_insts                303257126                       # Number of committed integer instructions.
system.cpu1.commit.loads                     37652922                       # Number of loads committed
system.cpu1.commit.membars                    2097399                       # Number of memory barriers committed
system.cpu1.commit.op_class_0::No_OpClass      2097399      0.65%      0.65% # Class of committed instruction
system.cpu1.commit.op_class_0::IntAlu       235474002     73.51%     74.17% # Class of committed instruction
system.cpu1.commit.op_class_0::IntMult           1261      0.00%     74.17% # Class of committed instruction
system.cpu1.commit.op_class_0::IntDiv              30      0.00%     74.17% # Class of committed instruction
system.cpu1.commit.op_class_0::FloatAdd       8388608      2.62%     76.79% # Class of committed instruction
system.cpu1.commit.op_class_0::FloatCmp      12582912      3.93%     80.72% # Class of committed instruction
system.cpu1.commit.op_class_0::FloatCvt       4456448      1.39%     82.11% # Class of committed instruction
system.cpu1.commit.op_class_0::FloatMult      4194304      1.31%     83.42% # Class of committed instruction
system.cpu1.commit.op_class_0::FloatMultAcc            0      0.00%     83.42% # Class of committed instruction
system.cpu1.commit.op_class_0::FloatDiv             0      0.00%     83.42% # Class of committed instruction
system.cpu1.commit.op_class_0::FloatMisc            0      0.00%     83.42% # Class of committed instruction
system.cpu1.commit.op_class_0::FloatSqrt            0      0.00%     83.42% # Class of committed instruction
system.cpu1.commit.op_class_0::SimdAdd              0      0.00%     83.42% # Class of committed instruction
system.cpu1.commit.op_class_0::SimdAddAcc            0      0.00%     83.42% # Class of committed instruction
system.cpu1.commit.op_class_0::SimdAlu              0      0.00%     83.42% # Class of committed instruction
system.cpu1.commit.op_class_0::SimdCmp              0      0.00%     83.42% # Class of committed instruction
system.cpu1.commit.op_class_0::SimdCvt              0      0.00%     83.42% # Class of committed instruction
system.cpu1.commit.op_class_0::SimdMisc             0      0.00%     83.42% # Class of committed instruction
system.cpu1.commit.op_class_0::SimdMult             0      0.00%     83.42% # Class of committed instruction
system.cpu1.commit.op_class_0::SimdMultAcc            0      0.00%     83.42% # Class of committed instruction
system.cpu1.commit.op_class_0::SimdShift            0      0.00%     83.42% # Class of committed instruction
system.cpu1.commit.op_class_0::SimdShiftAcc            0      0.00%     83.42% # Class of committed instruction
system.cpu1.commit.op_class_0::SimdDiv              0      0.00%     83.42% # Class of committed instruction
system.cpu1.commit.op_class_0::SimdSqrt             0      0.00%     83.42% # Class of committed instruction
system.cpu1.commit.op_class_0::SimdFloatAdd            0      0.00%     83.42% # Class of committed instruction
system.cpu1.commit.op_class_0::SimdFloatAlu            0      0.00%     83.42% # Class of committed instruction
system.cpu1.commit.op_class_0::SimdFloatCmp            0      0.00%     83.42% # Class of committed instruction
system.cpu1.commit.op_class_0::SimdFloatCvt            0      0.00%     83.42% # Class of committed instruction
system.cpu1.commit.op_class_0::SimdFloatDiv            0      0.00%     83.42% # Class of committed instruction
system.cpu1.commit.op_class_0::SimdFloatMisc            0      0.00%     83.42% # Class of committed instruction
system.cpu1.commit.op_class_0::SimdFloatMult            0      0.00%     83.42% # Class of committed instruction
system.cpu1.commit.op_class_0::SimdFloatMultAcc            0      0.00%     83.42% # Class of committed instruction
system.cpu1.commit.op_class_0::SimdFloatSqrt            0      0.00%     83.42% # Class of committed instruction
system.cpu1.commit.op_class_0::SimdReduceAdd            0      0.00%     83.42% # Class of committed instruction
system.cpu1.commit.op_class_0::SimdReduceAlu            0      0.00%     83.42% # Class of committed instruction
system.cpu1.commit.op_class_0::SimdReduceCmp            0      0.00%     83.42% # Class of committed instruction
system.cpu1.commit.op_class_0::SimdFloatReduceAdd            0      0.00%     83.42% # Class of committed instruction
system.cpu1.commit.op_class_0::SimdFloatReduceCmp            0      0.00%     83.42% # Class of committed instruction
system.cpu1.commit.op_class_0::SimdAes              0      0.00%     83.42% # Class of committed instruction
system.cpu1.commit.op_class_0::SimdAesMix            0      0.00%     83.42% # Class of committed instruction
system.cpu1.commit.op_class_0::SimdSha1Hash            0      0.00%     83.42% # Class of committed instruction
system.cpu1.commit.op_class_0::SimdSha1Hash2            0      0.00%     83.42% # Class of committed instruction
system.cpu1.commit.op_class_0::SimdSha256Hash            0      0.00%     83.42% # Class of committed instruction
system.cpu1.commit.op_class_0::SimdSha256Hash2            0      0.00%     83.42% # Class of committed instruction
system.cpu1.commit.op_class_0::SimdShaSigma2            0      0.00%     83.42% # Class of committed instruction
system.cpu1.commit.op_class_0::SimdShaSigma3            0      0.00%     83.42% # Class of committed instruction
system.cpu1.commit.op_class_0::SimdPredAlu            0      0.00%     83.42% # Class of committed instruction
system.cpu1.commit.op_class_0::MemRead       38439461     12.00%     95.42% # Class of committed instruction
system.cpu1.commit.op_class_0::MemWrite      14415927      4.50%     99.92% # Class of committed instruction
system.cpu1.commit.op_class_0::FloatMemRead       262154      0.08%    100.00% # Class of committed instruction
system.cpu1.commit.op_class_0::FloatMemWrite           18      0.00%    100.00% # Class of committed instruction
system.cpu1.commit.op_class_0::IprAccess            0      0.00%    100.00% # Class of committed instruction
system.cpu1.commit.op_class_0::InstPrefetch            0      0.00%    100.00% # Class of committed instruction
system.cpu1.commit.op_class_0::total        320312524                       # Class of committed instruction
system.cpu1.commit.refs                      53117560                       # Number of memory references committed
system.cpu1.commit.swp_count                        0                       # Number of s/w prefetches committed
system.cpu1.commit.vec_insts                        0                       # Number of committed Vector instructions.
system.cpu1.committedInsts                  319263771                       # Number of Instructions Simulated
system.cpu1.committedOps                    320312524                       # Number of Ops (including micro ops) Simulated
system.cpu1.cpi                              3.035934                       # CPI: Cycles Per Instruction
system.cpu1.cpi_total                        3.035934                       # CPI: Total CPI of All Threads
system.cpu1.decode.BlockedCycles            565267850                       # Number of cycles decode is blocked
system.cpu1.decode.BranchMispred              6993704                       # Number of times decode detected a branch misprediction
system.cpu1.decode.BranchResolved            69468811                       # Number of times decode resolved a branch
system.cpu1.decode.DecodedInsts             546310208                       # Number of instructions handled by decode
system.cpu1.decode.IdleCycles                96974466                       # Number of cycles decode is idle
system.cpu1.decode.RunCycles                287594797                       # Number of cycles decode is running
system.cpu1.decode.SquashCycles               9783466                       # Number of cycles decode is squashing
system.cpu1.decode.SquashedInsts             13907877                       # Number of squashed instructions handled by decode
system.cpu1.decode.UnblockCycles              9170810                       # Number of cycles decode is unblocking
system.cpu1.dtb.accesses                            0                       # DTB accesses
system.cpu1.dtb.hits                                0                       # DTB hits
system.cpu1.dtb.misses                              0                       # DTB misses
system.cpu1.dtb.read_accesses                       0                       # DTB read accesses
system.cpu1.dtb.read_hits                           0                       # DTB read hits
system.cpu1.dtb.read_misses                         0                       # DTB read misses
system.cpu1.dtb.write_accesses                      0                       # DTB write accesses
system.cpu1.dtb.write_hits                          0                       # DTB write hits
system.cpu1.dtb.write_misses                        0                       # DTB write misses
system.cpu1.fetch.Branches                  109848477                       # Number of branches that fetch encountered
system.cpu1.fetch.CacheLines                 75302002                       # Number of cache lines fetched
system.cpu1.fetch.Cycles                    866553426                       # Number of cycles fetch has run and was not squashing or blocked
system.cpu1.fetch.IcacheSquashes              1228636                       # Number of outstanding Icache misses that were squashed
system.cpu1.fetch.Insts                     611211516                       # Number of instructions fetch has processed
system.cpu1.fetch.MiscStallCycles                   1                       # Number of cycles fetch has spent waiting on interrupts, or bad addresses, or out of MSHRs
system.cpu1.fetch.SquashCycles               33547074                       # Number of cycles fetch has spent squashing
system.cpu1.fetch.branchRate                 0.113332                       # Number of branch fetches per cycle
system.cpu1.fetch.icacheStallCycles          85464425                       # Number of cycles fetch is stalled on an Icache miss
system.cpu1.fetch.predictedBranches          84479678                       # Number of branches that fetch has predicted taken
system.cpu1.fetch.rate                       0.630594                       # Number of inst fetches per cycle
system.cpu1.fetch.rateDist::samples         968791389                       # Number of instructions fetched each cycle (Total)
system.cpu1.fetch.rateDist::mean             0.631984                       # Number of instructions fetched each cycle (Total)
system.cpu1.fetch.rateDist::stdev            1.106660                       # Number of instructions fetched each cycle (Total)
system.cpu1.fetch.rateDist::underflows              0      0.00%      0.00% # Number of instructions fetched each cycle (Total)
system.cpu1.fetch.rateDist::0               616307682     63.62%     63.62% # Number of instructions fetched each cycle (Total)
system.cpu1.fetch.rateDist::1               213610430     22.05%     85.67% # Number of instructions fetched each cycle (Total)
system.cpu1.fetch.rateDist::2                77967010      8.05%     93.71% # Number of instructions fetched each cycle (Total)
system.cpu1.fetch.rateDist::3                30423809      3.14%     96.85% # Number of instructions fetched each cycle (Total)
system.cpu1.fetch.rateDist::4                11254485      1.16%     98.02% # Number of instructions fetched each cycle (Total)
system.cpu1.fetch.rateDist::5                 9007125      0.93%     98.94% # Number of instructions fetched each cycle (Total)
system.cpu1.fetch.rateDist::6                10185716      1.05%    100.00% # Number of instructions fetched each cycle (Total)
system.cpu1.fetch.rateDist::7                    4190      0.00%    100.00% # Number of instructions fetched each cycle (Total)
system.cpu1.fetch.rateDist::8                   30942      0.00%    100.00% # Number of instructions fetched each cycle (Total)
system.cpu1.fetch.rateDist::overflows               0      0.00%    100.00% # Number of instructions fetched each cycle (Total)
system.cpu1.fetch.rateDist::min_value               0                       # Number of instructions fetched each cycle (Total)
system.cpu1.fetch.rateDist::max_value               8                       # Number of instructions fetched each cycle (Total)
system.cpu1.fetch.rateDist::total           968791389                       # Number of instructions fetched each cycle (Total)
system.cpu1.fp_regfile_reads                 67202176                       # number of floating regfile reads
system.cpu1.fp_regfile_writes                20805749                       # number of floating regfile writes
system.cpu1.idleCycles                         472362                       # Total number of cycles that the CPU has spent unscheduled due to idling
system.cpu1.iew.branchMispredicts            10787892                       # Number of branch mispredicts detected at execute
system.cpu1.iew.exec_branches                76112401                       # Number of branches executed
system.cpu1.iew.exec_nop                            0                       # number of nop insts executed
system.cpu1.iew.exec_rate                    0.473255                       # Inst execution rate
system.cpu1.iew.exec_refs                    78118811                       # number of memory reference insts executed
system.cpu1.iew.exec_stores                  20520512                       # Number of stores executed
system.cpu1.iew.exec_swp                            0                       # number of swp insts executed
system.cpu1.iew.iewBlockCycles              527366758                       # Number of cycles IEW is blocking
system.cpu1.iew.iewDispLoadInsts             60841474                       # Number of dispatched load instructions
system.cpu1.iew.iewDispNonSpecInsts           1049502                       # Number of dispatched non-speculative instructions
system.cpu1.iew.iewDispSquashedInsts          3622851                       # Number of squashed instructions skipped by dispatch
system.cpu1.iew.iewDispStoreInsts            25300929                       # Number of dispatched store instructions
system.cpu1.iew.iewDispatchedInsts          503192092                       # Number of instructions dispatched to IQ
system.cpu1.iew.iewExecLoadInsts             57598299                       # Number of load instructions executed
system.cpu1.iew.iewExecSquashedInsts          9858971                       # Number of squashed instructions skipped in execute
system.cpu1.iew.iewExecutedInsts            458708614                       # Number of executed instructions
system.cpu1.iew.iewIQFullEvents                977191                       # Number of times the IQ has become full, causing a stall
system.cpu1.iew.iewIdleCycles                       0                       # Number of cycles IEW is idle
system.cpu1.iew.iewLSQFullEvents              1149043                       # Number of times the LSQ has become full, causing a stall
system.cpu1.iew.iewSquashCycles               9783466                       # Number of cycles IEW is squashing
system.cpu1.iew.iewUnblockCycles              4462844                       # Number of cycles IEW is unblocking
system.cpu1.iew.lsq.thread0.blockedLoads            0                       # Number of blocked loads due to partial load-store forwarding
system.cpu1.iew.lsq.thread0.cacheBlocked        57420                       # Number of times an access to memory failed due to the cache being blocked
system.cpu1.iew.lsq.thread0.forwLoads         2115523                       # Number of loads that had data forwarded from stores
system.cpu1.iew.lsq.thread0.ignoredResponses        27029                       # Number of memory responses ignored because the instruction is squashed
system.cpu1.iew.lsq.thread0.invAddrLoads            0                       # Number of loads ignored due to an invalid address
system.cpu1.iew.lsq.thread0.invAddrSwpfs            0                       # Number of software prefetches ignored due to an invalid address
system.cpu1.iew.lsq.thread0.memOrderViolation         3295                       # Number of memory ordering violations
system.cpu1.iew.lsq.thread0.rescheduledLoads          929                       # Number of loads that were rescheduled
system.cpu1.iew.lsq.thread0.squashedLoads     23188552                       # Number of loads squashed
system.cpu1.iew.lsq.thread0.squashedStores      9836291                       # Number of stores squashed
system.cpu1.iew.memOrderViolationEvents          3295                       # Number of memory order violations
system.cpu1.iew.predictedNotTakenIncorrect      1260000                       # Number of branches that were predicted not taken incorrectly
system.cpu1.iew.predictedTakenIncorrect       9527892                       # Number of branches that were predicted taken incorrectly
system.cpu1.iew.wb_consumers                337753185                       # num instructions consuming a value
system.cpu1.iew.wb_count                    454152362                       # cumulative count of insts written-back
system.cpu1.iew.wb_fanout                    0.816213                       # average fanout of values written-back
system.cpu1.iew.wb_producers                275678385                       # num instructions producing a value
system.cpu1.iew.wb_rate                      0.468554                       # insts written-back per cycle
system.cpu1.iew.wb_sent                     454818874                       # cumulative count of insts sent to commit
system.cpu1.int_regfile_reads               530694089                       # number of integer regfile reads
system.cpu1.int_regfile_writes              342580735                       # number of integer regfile writes
system.cpu1.ipc                              0.329388                       # IPC: Instructions Per Cycle
system.cpu1.ipc_total                        0.329388                       # IPC: Total IPC of All Threads
system.cpu1.iq.FU_type_0::No_OpClass          2097486      0.45%      0.45% # Type of FU issued
system.cpu1.iq.FU_type_0::IntAlu            347651590     74.19%     74.64% # Type of FU issued
system.cpu1.iq.FU_type_0::IntMult                1265      0.00%     74.64% # Type of FU issued
system.cpu1.iq.FU_type_0::IntDiv                   30      0.00%     74.64% # Type of FU issued
system.cpu1.iq.FU_type_0::FloatAdd           10142607      2.16%     76.81% # Type of FU issued
system.cpu1.iq.FU_type_0::FloatCmp           18393809      3.93%     80.73% # Type of FU issued
system.cpu1.iq.FU_type_0::FloatCvt            5395210      1.15%     81.88% # Type of FU issued
system.cpu1.iq.FU_type_0::FloatMult           5069172      1.08%     82.97% # Type of FU issued
system.cpu1.iq.FU_type_0::FloatMultAcc              0      0.00%     82.97% # Type of FU issued
system.cpu1.iq.FU_type_0::FloatDiv                  0      0.00%     82.97% # Type of FU issued
system.cpu1.iq.FU_type_0::FloatMisc                 0      0.00%     82.97% # Type of FU issued
system.cpu1.iq.FU_type_0::FloatSqrt                 0      0.00%     82.97% # Type of FU issued
system.cpu1.iq.FU_type_0::SimdAdd                   0      0.00%     82.97% # Type of FU issued
system.cpu1.iq.FU_type_0::SimdAddAcc                0      0.00%     82.97% # Type of FU issued
system.cpu1.iq.FU_type_0::SimdAlu                   0      0.00%     82.97% # Type of FU issued
system.cpu1.iq.FU_type_0::SimdCmp                   0      0.00%     82.97% # Type of FU issued
system.cpu1.iq.FU_type_0::SimdCvt                   0      0.00%     82.97% # Type of FU issued
system.cpu1.iq.FU_type_0::SimdMisc                  0      0.00%     82.97% # Type of FU issued
system.cpu1.iq.FU_type_0::SimdMult                  0      0.00%     82.97% # Type of FU issued
system.cpu1.iq.FU_type_0::SimdMultAcc               0      0.00%     82.97% # Type of FU issued
system.cpu1.iq.FU_type_0::SimdShift                 0      0.00%     82.97% # Type of FU issued
system.cpu1.iq.FU_type_0::SimdShiftAcc              0      0.00%     82.97% # Type of FU issued
system.cpu1.iq.FU_type_0::SimdDiv                   0      0.00%     82.97% # Type of FU issued
system.cpu1.iq.FU_type_0::SimdSqrt                  0      0.00%     82.97% # Type of FU issued
system.cpu1.iq.FU_type_0::SimdFloatAdd              0      0.00%     82.97% # Type of FU issued
system.cpu1.iq.FU_type_0::SimdFloatAlu              0      0.00%     82.97% # Type of FU issued
system.cpu1.iq.FU_type_0::SimdFloatCmp              0      0.00%     82.97% # Type of FU issued
system.cpu1.iq.FU_type_0::SimdFloatCvt              0      0.00%     82.97% # Type of FU issued
system.cpu1.iq.FU_type_0::SimdFloatDiv              0      0.00%     82.97% # Type of FU issued
system.cpu1.iq.FU_type_0::SimdFloatMisc             0      0.00%     82.97% # Type of FU issued
system.cpu1.iq.FU_type_0::SimdFloatMult             0      0.00%     82.97% # Type of FU issued
system.cpu1.iq.FU_type_0::SimdFloatMultAcc            0      0.00%     82.97% # Type of FU issued
system.cpu1.iq.FU_type_0::SimdFloatSqrt             0      0.00%     82.97% # Type of FU issued
system.cpu1.iq.FU_type_0::SimdReduceAdd             0      0.00%     82.97% # Type of FU issued
system.cpu1.iq.FU_type_0::SimdReduceAlu             0      0.00%     82.97% # Type of FU issued
system.cpu1.iq.FU_type_0::SimdReduceCmp             0      0.00%     82.97% # Type of FU issued
system.cpu1.iq.FU_type_0::SimdFloatReduceAdd            0      0.00%     82.97% # Type of FU issued
system.cpu1.iq.FU_type_0::SimdFloatReduceCmp            0      0.00%     82.97% # Type of FU issued
system.cpu1.iq.FU_type_0::SimdAes                   0      0.00%     82.97% # Type of FU issued
system.cpu1.iq.FU_type_0::SimdAesMix                0      0.00%     82.97% # Type of FU issued
system.cpu1.iq.FU_type_0::SimdSha1Hash              0      0.00%     82.97% # Type of FU issued
system.cpu1.iq.FU_type_0::SimdSha1Hash2             0      0.00%     82.97% # Type of FU issued
system.cpu1.iq.FU_type_0::SimdSha256Hash            0      0.00%     82.97% # Type of FU issued
system.cpu1.iq.FU_type_0::SimdSha256Hash2            0      0.00%     82.97% # Type of FU issued
system.cpu1.iq.FU_type_0::SimdShaSigma2             0      0.00%     82.97% # Type of FU issued
system.cpu1.iq.FU_type_0::SimdShaSigma3             0      0.00%     82.97% # Type of FU issued
system.cpu1.iq.FU_type_0::SimdPredAlu               0      0.00%     82.97% # Type of FU issued
system.cpu1.iq.FU_type_0::MemRead            59463080     12.69%     95.66% # Type of FU issued
system.cpu1.iq.FU_type_0::MemWrite           20091143      4.29%     99.94% # Type of FU issued
system.cpu1.iq.FU_type_0::FloatMemRead         262175      0.06%    100.00% # Type of FU issued
system.cpu1.iq.FU_type_0::FloatMemWrite            18      0.00%    100.00% # Type of FU issued
system.cpu1.iq.FU_type_0::IprAccess                 0      0.00%    100.00% # Type of FU issued
system.cpu1.iq.FU_type_0::InstPrefetch              0      0.00%    100.00% # Type of FU issued
system.cpu1.iq.FU_type_0::total             468567585                       # Type of FU issued
system.cpu1.iq.fp_alu_accesses               39263512                       # Number of floating point alu accesses
system.cpu1.iq.fp_inst_queue_reads           78526503                       # Number of floating instruction queue reads
system.cpu1.iq.fp_inst_queue_wakeup_accesses     39199253                       # Number of floating instruction queue wakeup accesses
system.cpu1.iq.fp_inst_queue_writes          54888430                       # Number of floating instruction queue writes
system.cpu1.iq.fu_busy_cnt                    3340598                       # FU busy when requested
system.cpu1.iq.fu_busy_rate                  0.007129                       # FU busy rate (busy events/executed inst)
system.cpu1.iq.fu_full::No_OpClass                  0      0.00%      0.00% # attempts to use FU when none available
system.cpu1.iq.fu_full::IntAlu                2970448     88.92%     88.92% # attempts to use FU when none available
system.cpu1.iq.fu_full::IntMult                     0      0.00%     88.92% # attempts to use FU when none available
system.cpu1.iq.fu_full::IntDiv                      0      0.00%     88.92% # attempts to use FU when none available
system.cpu1.iq.fu_full::FloatAdd                  232      0.01%     88.93% # attempts to use FU when none available
system.cpu1.iq.fu_full::FloatCmp                  250      0.01%     88.93% # attempts to use FU when none available
system.cpu1.iq.fu_full::FloatCvt                   33      0.00%     88.94% # attempts to use FU when none available
system.cpu1.iq.fu_full::FloatMult                   0      0.00%     88.94% # attempts to use FU when none available
system.cpu1.iq.fu_full::FloatMultAcc                0      0.00%     88.94% # attempts to use FU when none available
system.cpu1.iq.fu_full::FloatDiv                    0      0.00%     88.94% # attempts to use FU when none available
system.cpu1.iq.fu_full::FloatMisc                   0      0.00%     88.94% # attempts to use FU when none available
system.cpu1.iq.fu_full::FloatSqrt                   0      0.00%     88.94% # attempts to use FU when none available
system.cpu1.iq.fu_full::SimdAdd                     0      0.00%     88.94% # attempts to use FU when none available
system.cpu1.iq.fu_full::SimdAddAcc                  0      0.00%     88.94% # attempts to use FU when none available
system.cpu1.iq.fu_full::SimdAlu                     0      0.00%     88.94% # attempts to use FU when none available
system.cpu1.iq.fu_full::SimdCmp                     0      0.00%     88.94% # attempts to use FU when none available
system.cpu1.iq.fu_full::SimdCvt                     0      0.00%     88.94% # attempts to use FU when none available
system.cpu1.iq.fu_full::SimdMisc                    0      0.00%     88.94% # attempts to use FU when none available
system.cpu1.iq.fu_full::SimdMult                    0      0.00%     88.94% # attempts to use FU when none available
system.cpu1.iq.fu_full::SimdMultAcc                 0      0.00%     88.94% # attempts to use FU when none available
system.cpu1.iq.fu_full::SimdShift                   0      0.00%     88.94% # attempts to use FU when none available
system.cpu1.iq.fu_full::SimdShiftAcc                0      0.00%     88.94% # attempts to use FU when none available
system.cpu1.iq.fu_full::SimdDiv                     0      0.00%     88.94% # attempts to use FU when none available
system.cpu1.iq.fu_full::SimdSqrt                    0      0.00%     88.94% # attempts to use FU when none available
system.cpu1.iq.fu_full::SimdFloatAdd                0      0.00%     88.94% # attempts to use FU when none available
system.cpu1.iq.fu_full::SimdFloatAlu                0      0.00%     88.94% # attempts to use FU when none available
system.cpu1.iq.fu_full::SimdFloatCmp                0      0.00%     88.94% # attempts to use FU when none available
system.cpu1.iq.fu_full::SimdFloatCvt                0      0.00%     88.94% # attempts to use FU when none available
system.cpu1.iq.fu_full::SimdFloatDiv                0      0.00%     88.94% # attempts to use FU when none available
system.cpu1.iq.fu_full::SimdFloatMisc               0      0.00%     88.94% # attempts to use FU when none available
system.cpu1.iq.fu_full::SimdFloatMult               0      0.00%     88.94% # attempts to use FU when none available
system.cpu1.iq.fu_full::SimdFloatMultAcc            0      0.00%     88.94% # attempts to use FU when none available
system.cpu1.iq.fu_full::SimdFloatSqrt               0      0.00%     88.94% # attempts to use FU when none available
system.cpu1.iq.fu_full::SimdReduceAdd               0      0.00%     88.94% # attempts to use FU when none available
system.cpu1.iq.fu_full::SimdReduceAlu               0      0.00%     88.94% # attempts to use FU when none available
system.cpu1.iq.fu_full::SimdReduceCmp               0      0.00%     88.94% # attempts to use FU when none available
system.cpu1.iq.fu_full::SimdFloatReduceAdd            0      0.00%     88.94% # attempts to use FU when none available
system.cpu1.iq.fu_full::SimdFloatReduceCmp            0      0.00%     88.94% # attempts to use FU when none available
system.cpu1.iq.fu_full::SimdAes                     0      0.00%     88.94% # attempts to use FU when none available
system.cpu1.iq.fu_full::SimdAesMix                  0      0.00%     88.94% # attempts to use FU when none available
system.cpu1.iq.fu_full::SimdSha1Hash                0      0.00%     88.94% # attempts to use FU when none available
system.cpu1.iq.fu_full::SimdSha1Hash2               0      0.00%     88.94% # attempts to use FU when none available
system.cpu1.iq.fu_full::SimdSha256Hash              0      0.00%     88.94% # attempts to use FU when none available
system.cpu1.iq.fu_full::SimdSha256Hash2             0      0.00%     88.94% # attempts to use FU when none available
system.cpu1.iq.fu_full::SimdShaSigma2               0      0.00%     88.94% # attempts to use FU when none available
system.cpu1.iq.fu_full::SimdShaSigma3               0      0.00%     88.94% # attempts to use FU when none available
system.cpu1.iq.fu_full::SimdPredAlu                 0      0.00%     88.94% # attempts to use FU when none available
system.cpu1.iq.fu_full::MemRead                349473     10.46%     99.40% # attempts to use FU when none available
[...]
system.cpu1.dcache.WriteReq_mshr_miss_rate::total     0.043219                       # mshr miss rate for WriteReq accesses
system.cpu1.dcache.WriteReq_avg_mshr_miss_latency::.cpu1.data 114305.681126                       # average WriteReq mshr miss latency
system.cpu1.dcache.WriteReq_avg_mshr_miss_latency::total 114305.681126                       # average WriteReq mshr miss latency
system.cpu1.dcache.LoadLockedReq_hits::.cpu1.data          146                       # number of LoadLockedReq hits
system.cpu1.dcache.LoadLockedReq_hits::total          146                       # number of LoadLockedReq hits
system.cpu1.dcache.LoadLockedReq_misses::.cpu1.data           47                       # number of LoadLockedReq misses
system.cpu1.dcache.LoadLockedReq_misses::total           47                       # number of LoadLockedReq misses
system.cpu1.dcache.LoadLockedReq_miss_latency::.cpu1.data       721500                       # number of LoadLockedReq miss cycles
system.cpu1.dcache.LoadLockedReq_miss_latency::total       721500                       # number of LoadLockedReq miss cycles
system.cpu1.dcache.LoadLockedReq_accesses::.cpu1.data          193                       # number of LoadLockedReq accesses(hits+misses)
system.cpu1.dcache.LoadLockedReq_accesses::total          193                       # number of LoadLockedReq accesses(hits+misses)
system.cpu1.dcache.LoadLockedReq_miss_rate::.cpu1.data     0.243523                       # miss rate for LoadLockedReq accesses
system.cpu1.dcache.LoadLockedReq_miss_rate::total     0.243523                       # miss rate for LoadLockedReq accesses
system.cpu1.dcache.LoadLockedReq_avg_miss_latency::.cpu1.data 15351.063830                       # average LoadLockedReq miss latency
system.cpu1.dcache.LoadLockedReq_avg_miss_latency::total 15351.063830                       # average LoadLockedReq miss latency
system.cpu1.dcache.LoadLockedReq_mshr_hits::.cpu1.data           29                       # number of LoadLockedReq MSHR hits
system.cpu1.dcache.LoadLockedReq_mshr_hits::total           29                       # number of LoadLockedReq MSHR hits
system.cpu1.dcache.LoadLockedReq_mshr_misses::.cpu1.data           18                       # number of LoadLockedReq MSHR misses
system.cpu1.dcache.LoadLockedReq_mshr_misses::total           18                       # number of LoadLockedReq MSHR misses
system.cpu1.dcache.LoadLockedReq_mshr_miss_latency::.cpu1.data       127000                       # number of LoadLockedReq MSHR miss cycles
system.cpu1.dcache.LoadLockedReq_mshr_miss_latency::total       127000                       # number of LoadLockedReq MSHR miss cycles
system.cpu1.dcache.LoadLockedReq_mshr_miss_rate::.cpu1.data     0.093264                       # mshr miss rate for LoadLockedReq accesses
system.cpu1.dcache.LoadLockedReq_mshr_miss_rate::total     0.093264                       # mshr miss rate for LoadLockedReq accesses
system.cpu1.dcache.LoadLockedReq_avg_mshr_miss_latency::.cpu1.data  7055.555556                       # average LoadLockedReq mshr miss latency
system.cpu1.dcache.LoadLockedReq_avg_mshr_miss_latency::total  7055.555556                       # average LoadLockedReq mshr miss latency
system.cpu1.dcache.StoreCondReq_hits::.cpu1.data           77                       # number of StoreCondReq hits
system.cpu1.dcache.StoreCondReq_hits::total           77                       # number of StoreCondReq hits
system.cpu1.dcache.StoreCondReq_misses::.cpu1.data           67                       # number of StoreCondReq misses
system.cpu1.dcache.StoreCondReq_misses::total           67                       # number of StoreCondReq misses
system.cpu1.dcache.StoreCondReq_miss_latency::.cpu1.data       517500                       # number of StoreCondReq miss cycles
system.cpu1.dcache.StoreCondReq_miss_latency::total       517500                       # number of StoreCondReq miss cycles
system.cpu1.dcache.StoreCondReq_accesses::.cpu1.data          144                       # number of StoreCondReq accesses(hits+misses)
system.cpu1.dcache.StoreCondReq_accesses::total          144                       # number of StoreCondReq accesses(hits+misses)
system.cpu1.dcache.StoreCondReq_miss_rate::.cpu1.data     0.465278                       # miss rate for StoreCondReq accesses
system.cpu1.dcache.StoreCondReq_miss_rate::total     0.465278                       # miss rate for StoreCondReq accesses
system.cpu1.dcache.StoreCondReq_avg_miss_latency::.cpu1.data  7723.880597                       # average StoreCondReq miss latency
system.cpu1.dcache.StoreCondReq_avg_miss_latency::total  7723.880597                       # average StoreCondReq miss latency
system.cpu1.dcache.StoreCondReq_mshr_misses::.cpu1.data           66                       # number of StoreCondReq MSHR misses
system.cpu1.dcache.StoreCondReq_mshr_misses::total           66                       # number of StoreCondReq MSHR misses
system.cpu1.dcache.StoreCondReq_mshr_miss_latency::.cpu1.data       454500                       # number of StoreCondReq MSHR miss cycles
system.cpu1.dcache.StoreCondReq_mshr_miss_latency::total       454500                       # number of StoreCondReq MSHR miss cycles
system.cpu1.dcache.StoreCondReq_mshr_miss_rate::.cpu1.data     0.458333                       # mshr miss rate for StoreCondReq accesses
system.cpu1.dcache.StoreCondReq_mshr_miss_rate::total     0.458333                       # mshr miss rate for StoreCondReq accesses
system.cpu1.dcache.StoreCondReq_avg_mshr_miss_latency::.cpu1.data  6886.363636                       # average StoreCondReq mshr miss latency
system.cpu1.dcache.StoreCondReq_avg_mshr_miss_latency::total  6886.363636                       # average StoreCondReq mshr miss latency
system.cpu1.dcache.StoreCondFailReq_miss_latency::.cpu1.data        87000                       # number of StoreCondFailReq miss cycles
system.cpu1.dcache.StoreCondFailReq_miss_latency::total        87000                       # number of StoreCondFailReq miss cycles
system.cpu1.dcache.StoreCondFailReq_avg_miss_latency::.cpu1.data          inf                       # average StoreCondFailReq miss latency
system.cpu1.dcache.StoreCondFailReq_avg_miss_latency::total          inf                       # average StoreCondFailReq miss latency
system.cpu1.dcache.StoreCondFailReq_mshr_miss_latency::.cpu1.data        84000                       # number of StoreCondFailReq MSHR miss cycles
system.cpu1.dcache.StoreCondFailReq_mshr_miss_latency::total        84000                       # number of StoreCondFailReq MSHR miss cycles
system.cpu1.dcache.StoreCondFailReq_avg_mshr_miss_latency::.cpu1.data          inf                       # average StoreCondFailReq mshr miss latency
system.cpu1.dcache.StoreCondFailReq_avg_mshr_miss_latency::total          inf                       # average StoreCondFailReq mshr miss latency
system.cpu1.dcache.SwapReq_hits::.cpu1.data        15141                       # number of SwapReq hits
system.cpu1.dcache.SwapReq_hits::total          15141                       # number of SwapReq hits
system.cpu1.dcache.SwapReq_misses::.cpu1.data      1033552                       # number of SwapReq misses
system.cpu1.dcache.SwapReq_misses::total      1033552                       # number of SwapReq misses
system.cpu1.dcache.SwapReq_miss_latency::.cpu1.data 110491182500                       # number of SwapReq miss cycles
system.cpu1.dcache.SwapReq_miss_latency::total 110491182500                       # number of SwapReq miss cycles
system.cpu1.dcache.SwapReq_accesses::.cpu1.data      1048693                       # number of SwapReq accesses(hits+misses)
system.cpu1.dcache.SwapReq_accesses::total      1048693                       # number of SwapReq accesses(hits+misses)
system.cpu1.dcache.SwapReq_miss_rate::.cpu1.data     0.985562                       # miss rate for SwapReq accesses
system.cpu1.dcache.SwapReq_miss_rate::total     0.985562                       # miss rate for SwapReq accesses
system.cpu1.dcache.SwapReq_avg_miss_latency::.cpu1.data 106904.328471                       # average SwapReq miss latency
system.cpu1.dcache.SwapReq_avg_miss_latency::total 106904.328471                       # average SwapReq miss latency
system.cpu1.dcache.SwapReq_mshr_hits::.cpu1.data            1                       # number of SwapReq MSHR hits
system.cpu1.dcache.SwapReq_mshr_hits::total            1                       # number of SwapReq MSHR hits
system.cpu1.dcache.SwapReq_mshr_misses::.cpu1.data      1033551                       # number of SwapReq MSHR misses
system.cpu1.dcache.SwapReq_mshr_misses::total      1033551                       # number of SwapReq MSHR misses
system.cpu1.dcache.SwapReq_mshr_miss_latency::.cpu1.data 109457630500                       # number of SwapReq MSHR miss cycles
system.cpu1.dcache.SwapReq_mshr_miss_latency::total 109457630500                       # number of SwapReq MSHR miss cycles
system.cpu1.dcache.SwapReq_mshr_miss_rate::.cpu1.data     0.985561                       # mshr miss rate for SwapReq accesses
system.cpu1.dcache.SwapReq_mshr_miss_rate::total     0.985561                       # mshr miss rate for SwapReq accesses
system.cpu1.dcache.SwapReq_avg_mshr_miss_latency::.cpu1.data 105904.430938                       # average SwapReq mshr miss latency
system.cpu1.dcache.SwapReq_avg_mshr_miss_latency::total 105904.430938                       # average SwapReq mshr miss latency
system.cpu1.dcache.tags.pwrStateResidencyTicks::UNDEFINED 493168527000                       # Cumulative time (in ticks) in various power states
system.cpu1.dcache.tags.tagsinuse           31.566702                       # Cycle average of tags in use
system.cpu1.dcache.tags.total_refs           63337929                       # Total number of references to valid blocks.
system.cpu1.dcache.tags.sampled_refs          4073309                       # Sample count of references to valid blocks.
system.cpu1.dcache.tags.avg_refs            15.549503                       # Average number of references to valid blocks.
system.cpu1.dcache.tags.warmup_cycle        363603000                       # Cycle when the warmup percentage was hit.
system.cpu1.dcache.tags.occ_blocks::.cpu1.data    31.566702                       # Average occupied blocks per requestor
system.cpu1.dcache.tags.occ_percent::.cpu1.data     0.986459                       # Average percentage of cache occupancy
system.cpu1.dcache.tags.occ_percent::total     0.986459                       # Average percentage of cache occupancy
system.cpu1.dcache.tags.occ_task_id_blocks::1024           28                       # Occupied blocks per task id
system.cpu1.dcache.tags.age_task_id_blocks_1024::0            2                       # Occupied blocks per task id
system.cpu1.dcache.tags.age_task_id_blocks_1024::1           26                       # Occupied blocks per task id
system.cpu1.dcache.tags.occ_task_id_percent::1024     0.875000                       # Percentage of cache occupancy per task id
system.cpu1.dcache.tags.tag_accesses        145388301                       # Number of tag accesses
system.cpu1.dcache.tags.data_accesses       145388301                       # Number of data accesses
system.cpu_clk_domain.clock                       500                       # Clock period in ticks
system.tol2bus.pwrStateResidencyTicks::UNDEFINED 493168527000                       # Cumulative time (in ticks) in various power states
system.tol2bus.trans_dist::ReadResp           9865650                       # Transaction distribution
system.tol2bus.trans_dist::ReadRespWithInvalidate            2                       # Transaction distribution
system.tol2bus.trans_dist::WritebackDirty     18304209                       # Transaction distribution
system.tol2bus.trans_dist::WritebackClean      6654245                       # Transaction distribution
system.tol2bus.trans_dist::CleanEvict        19546663                       # Transaction distribution
system.tol2bus.trans_dist::UpgradeReq             441                       # Transaction distribution
system.tol2bus.trans_dist::SCUpgradeReq           236                       # Transaction distribution
system.tol2bus.trans_dist::UpgradeResp            677                       # Transaction distribution
system.tol2bus.trans_dist::SCUpgradeFailReq           18                       # Transaction distribution
system.tol2bus.trans_dist::UpgradeFailResp           18                       # Transaction distribution
system.tol2bus.trans_dist::ReadExReq          6641727                       # Transaction distribution
system.tol2bus.trans_dist::ReadExResp         6641727                       # Transaction distribution
system.tol2bus.trans_dist::ReadCleanReq        147122                       # Transaction distribution
system.tol2bus.trans_dist::ReadSharedReq      9718531                       # Transaction distribution
system.tol2bus.trans_dist::InvalidateReq           73                       # Transaction distribution
system.tol2bus.trans_dist::InvalidateResp           73                       # Transaction distribution
system.tol2bus.pkt_count_system.cpu0.icache.mem_side::system.l2.cpu_side       130124                       # Packet count per connected master and slave (bytes)
system.tol2bus.pkt_count_system.cpu0.dcache.mem_side::system.l2.cpu_side     12426542                       # Packet count per connected master and slave (bytes)
system.tol2bus.pkt_count_system.cpu1.icache.mem_side::system.l2.cpu_side       104767                       # Packet count per connected master and slave (bytes)
system.tol2bus.pkt_count_system.cpu1.dcache.mem_side::system.l2.cpu_side     12101290                       # Packet count per connected master and slave (bytes)
system.tol2bus.pkt_count_system.cpu2.icache.mem_side::system.l2.cpu_side       104161                       # Packet count per connected master and slave (bytes)
system.tol2bus.pkt_count_system.cpu2.dcache.mem_side::system.l2.cpu_side     12065664                       # Packet count per connected master and slave (bytes)
system.tol2bus.pkt_count_system.cpu3.icache.mem_side::system.l2.cpu_side       102184                       # Packet count per connected master and slave (bytes)
system.tol2bus.pkt_count_system.cpu3.dcache.mem_side::system.l2.cpu_side     12011357                       # Packet count per connected master and slave (bytes)
system.tol2bus.pkt_count::total              49046089                       # Packet count per connected master and slave (bytes)
system.tol2bus.pkt_size_system.cpu0.icache.mem_side::system.l2.cpu_side      5551232                       # Cumulative packet size per connected master and slave (bytes)
system.tol2bus.pkt_size_system.cpu0.dcache.mem_side::system.l2.cpu_side    527643008                       # Cumulative packet size per connected master and slave (bytes)
system.tol2bus.pkt_size_system.cpu1.icache.mem_side::system.l2.cpu_side      4469376                       # Cumulative packet size per connected master and slave (bytes)
system.tol2bus.pkt_size_system.cpu1.dcache.mem_side::system.l2.cpu_side    513776512                       # Cumulative packet size per connected master and slave (bytes)
system.tol2bus.pkt_size_system.cpu2.icache.mem_side::system.l2.cpu_side      4443520                       # Cumulative packet size per connected master and slave (bytes)
system.tol2bus.pkt_size_system.cpu2.dcache.mem_side::system.l2.cpu_side    512243648                       # Cumulative packet size per connected master and slave (bytes)
system.tol2bus.pkt_size_system.cpu3.icache.mem_side::system.l2.cpu_side      4359168                       # Cumulative packet size per connected master and slave (bytes)
system.tol2bus.pkt_size_system.cpu3.dcache.mem_side::system.l2.cpu_side    509930624                       # Cumulative packet size per connected master and slave (bytes)
system.tol2bus.pkt_size::total             2082417088                       # Cumulative packet size per connected master and slave (bytes)
system.tol2bus.snoops                        28475323                       # Total snoops (count)
system.tol2bus.snoopTraffic                 571397376                       # Total snoop traffic (bytes)
system.tol2bus.snoop_fanout::samples         44744454                       # Request fanout histogram
system.tol2bus.snoop_fanout::mean            0.356483                       # Request fanout histogram
system.tol2bus.snoop_fanout::stdev           0.543058                       # Request fanout histogram
system.tol2bus.snoop_fanout::underflows             0      0.00%      0.00% # Request fanout histogram
system.tol2bus.snoop_fanout::0               29782540     66.56%     66.56% # Request fanout histogram
system.tol2bus.snoop_fanout::1               14361269     32.10%     98.66% # Request fanout histogram
system.tol2bus.snoop_fanout::2                 301399      0.67%     99.33% # Request fanout histogram
system.tol2bus.snoop_fanout::3                 210430      0.47%     99.80% # Request fanout histogram
system.tol2bus.snoop_fanout::4                  88816      0.20%    100.00% # Request fanout histogram
system.tol2bus.snoop_fanout::5                      0      0.00%    100.00% # Request fanout histogram
system.tol2bus.snoop_fanout::6                      0      0.00%    100.00% # Request fanout histogram
system.tol2bus.snoop_fanout::7                      0      0.00%    100.00% # Request fanout histogram
system.tol2bus.snoop_fanout::8                      0      0.00%    100.00% # Request fanout histogram
system.tol2bus.snoop_fanout::overflows              0      0.00%    100.00% # Request fanout histogram
system.tol2bus.snoop_fanout::min_value              0                       # Request fanout histogram
system.tol2bus.snoop_fanout::max_value              4                       # Request fanout histogram
system.tol2bus.snoop_fanout::total           44744454                       # Request fanout histogram
system.tol2bus.reqLayer0.occupancy        32657314982                       # Layer occupancy (ticks)
system.tol2bus.reqLayer0.utilization              6.6                       # Layer utilization (%)
system.tol2bus.respLayer5.occupancy        6097613351                       # Layer occupancy (ticks)
system.tol2bus.respLayer5.utilization             1.2                       # Layer utilization (%)
system.tol2bus.respLayer4.occupancy          52211736                       # Layer occupancy (ticks)
system.tol2bus.respLayer4.utilization             0.0                       # Layer utilization (%)
system.tol2bus.respLayer7.occupancy        6070298437                       # Layer occupancy (ticks)
system.tol2bus.respLayer7.utilization             1.2                       # Layer utilization (%)
system.tol2bus.respLayer6.occupancy          51213761                       # Layer occupancy (ticks)
system.tol2bus.respLayer6.utilization             0.0                       # Layer utilization (%)
system.tol2bus.respLayer1.occupancy        6277847879                       # Layer occupancy (ticks)
system.tol2bus.respLayer1.utilization             1.3                       # Layer utilization (%)
system.tol2bus.respLayer0.occupancy          65134378                       # Layer occupancy (ticks)
system.tol2bus.respLayer0.utilization             0.0                       # Layer utilization (%)
system.tol2bus.respLayer3.occupancy        6115014994                       # Layer occupancy (ticks)
system.tol2bus.respLayer3.utilization             1.2                       # Layer utilization (%)
system.tol2bus.respLayer2.occupancy          52510234                       # Layer occupancy (ticks)
system.tol2bus.respLayer2.utilization             0.0                       # Layer utilization (%)

---------- End Simulation Statistics   ----------
