
---------- Begin Simulation Statistics ----------
<<<<<<< HEAD
final_tick                               625670651500                       # Number of ticks from beginning of simulation (restored from checkpoints and never reset)
host_inst_rate                                  92890                       # Simulator instruction rate (inst/s)
host_mem_usage                                 739336                       # Number of bytes of host memory used
host_op_rate                                    93198                       # Simulator op (including micro ops) rate (op/s)
host_seconds                                  6603.45                       # Real time elapsed on the host
host_tick_rate                               94749099                       # Simulator tick rate (ticks/s)
sim_freq                                 1000000000000                       # Frequency of simulated ticks
sim_insts                                   613391136                       # Number of instructions simulated
sim_ops                                     615429904                       # Number of ops (including micro ops) simulated
sim_seconds                                  0.625671                       # Number of seconds simulated
sim_ticks                                625670651500                       # Number of ticks simulated
system.cpu0.branchPred.BTBCorrect                   0                       # Number of correct BTB predictions (this stat may not work properly.
system.cpu0.branchPred.BTBHitPct            86.771100                       # BTB Hit Percentage
system.cpu0.branchPred.BTBHits               76984243                       # Number of BTB hits
system.cpu0.branchPred.BTBLookups            88721064                       # Number of BTB lookups
system.cpu0.branchPred.RASInCorrect                 0                       # Number of incorrect RAS predictions.
system.cpu0.branchPred.condIncorrect          8517136                       # Number of conditional branches incorrect
system.cpu0.branchPred.condPredicted        119316222                       # Number of conditional branches predicted
system.cpu0.branchPred.indirectHits          11454739                       # Number of indirect target hits.
system.cpu0.branchPred.indirectLookups       11585064                       # Number of indirect predictor lookups.
system.cpu0.branchPred.indirectMisses          130325                       # Number of indirect misses.
system.cpu0.branchPred.lookups              154559549                       # Number of BP lookups
system.cpu0.branchPred.usedRAS                      0                       # Number of times the RAS was used to get a target.
system.cpu0.branchPredindirectMispredicted      1052795                       # Number of mispredicted indirect branches.
system.cpu0.commit.amos                        509394                       # Number of atomic instructions committed
system.cpu0.commit.branchMispredicts          5602014                       # The number of times a branch was mispredicted
system.cpu0.commit.branches                 138964334                       # Number of branches committed
system.cpu0.commit.bw_lim_events             18229384                       # number cycles where commit BW limit reached
system.cpu0.commit.commitNonSpecStalls        1532363                       # The number of times commit has been forced to stall to communicate backwards
system.cpu0.commit.commitSquashedInsts       51060413                       # The number of squashed insts skipped by commit
system.cpu0.commit.committedInsts           561784569                       # Number of instructions committed
system.cpu0.commit.committedOps             562295239                       # Number of ops (including micro ops) committed
system.cpu0.commit.committed_per_cycle::samples    919884687                       # Number of insts commited each cycle
system.cpu0.commit.committed_per_cycle::mean     0.611267                       # Number of insts commited each cycle
system.cpu0.commit.committed_per_cycle::stdev     1.431646                       # Number of insts commited each cycle
system.cpu0.commit.committed_per_cycle::underflows            0      0.00%      0.00% # Number of insts commited each cycle
system.cpu0.commit.committed_per_cycle::0    661015777     71.86%     71.86% # Number of insts commited each cycle
system.cpu0.commit.committed_per_cycle::1    152723336     16.60%     88.46% # Number of insts commited each cycle
system.cpu0.commit.committed_per_cycle::2     34683314      3.77%     92.23% # Number of insts commited each cycle
system.cpu0.commit.committed_per_cycle::3     33485796      3.64%     95.87% # Number of insts commited each cycle
system.cpu0.commit.committed_per_cycle::4     11605288      1.26%     97.13% # Number of insts commited each cycle
system.cpu0.commit.committed_per_cycle::5      4243674      0.46%     97.59% # Number of insts commited each cycle
system.cpu0.commit.committed_per_cycle::6      1013533      0.11%     97.70% # Number of insts commited each cycle
system.cpu0.commit.committed_per_cycle::7      2884585      0.31%     98.02% # Number of insts commited each cycle
system.cpu0.commit.committed_per_cycle::8     18229384      1.98%    100.00% # Number of insts commited each cycle
system.cpu0.commit.committed_per_cycle::overflows            0      0.00%    100.00% # Number of insts commited each cycle
system.cpu0.commit.committed_per_cycle::min_value            0                       # Number of insts commited each cycle
system.cpu0.commit.committed_per_cycle::max_value            8                       # Number of insts commited each cycle
system.cpu0.commit.committed_per_cycle::total    919884687                       # Number of insts commited each cycle
system.cpu0.commit.fp_insts                        50                       # Number of committed floating point instructions.
system.cpu0.commit.function_calls            11671782                       # Number of function calls committed.
system.cpu0.commit.int_insts                543434542                       # Number of committed integer instructions.
system.cpu0.commit.loads                    174757554                       # Number of loads committed
system.cpu0.commit.membars                    1019953                       # Number of memory barriers committed
system.cpu0.commit.op_class_0::No_OpClass      1019959      0.18%      0.18% # Class of committed instruction
system.cpu0.commit.op_class_0::IntAlu       311038593     55.32%     55.50% # Class of committed instruction
system.cpu0.commit.op_class_0::IntMult        4137156      0.74%     56.23% # Class of committed instruction
system.cpu0.commit.op_class_0::IntDiv         1017773      0.18%     56.41% # Class of committed instruction
system.cpu0.commit.op_class_0::FloatAdd             0      0.00%     56.41% # Class of committed instruction
system.cpu0.commit.op_class_0::FloatCmp             4      0.00%     56.41% # Class of committed instruction
system.cpu0.commit.op_class_0::FloatCvt            12      0.00%     56.41% # Class of committed instruction
system.cpu0.commit.op_class_0::FloatMult            0      0.00%     56.41% # Class of committed instruction
system.cpu0.commit.op_class_0::FloatMultAcc            0      0.00%     56.41% # Class of committed instruction
system.cpu0.commit.op_class_0::FloatDiv             2      0.00%     56.41% # Class of committed instruction
system.cpu0.commit.op_class_0::FloatMisc            4      0.00%     56.41% # Class of committed instruction
system.cpu0.commit.op_class_0::FloatSqrt            0      0.00%     56.41% # Class of committed instruction
system.cpu0.commit.op_class_0::SimdAdd              0      0.00%     56.41% # Class of committed instruction
system.cpu0.commit.op_class_0::SimdAddAcc            0      0.00%     56.41% # Class of committed instruction
system.cpu0.commit.op_class_0::SimdAlu              0      0.00%     56.41% # Class of committed instruction
system.cpu0.commit.op_class_0::SimdCmp              0      0.00%     56.41% # Class of committed instruction
system.cpu0.commit.op_class_0::SimdCvt              0      0.00%     56.41% # Class of committed instruction
system.cpu0.commit.op_class_0::SimdMisc             0      0.00%     56.41% # Class of committed instruction
system.cpu0.commit.op_class_0::SimdMult             0      0.00%     56.41% # Class of committed instruction
system.cpu0.commit.op_class_0::SimdMultAcc            0      0.00%     56.41% # Class of committed instruction
system.cpu0.commit.op_class_0::SimdShift            0      0.00%     56.41% # Class of committed instruction
system.cpu0.commit.op_class_0::SimdShiftAcc            0      0.00%     56.41% # Class of committed instruction
system.cpu0.commit.op_class_0::SimdDiv              0      0.00%     56.41% # Class of committed instruction
system.cpu0.commit.op_class_0::SimdSqrt             0      0.00%     56.41% # Class of committed instruction
system.cpu0.commit.op_class_0::SimdFloatAdd            0      0.00%     56.41% # Class of committed instruction
system.cpu0.commit.op_class_0::SimdFloatAlu            0      0.00%     56.41% # Class of committed instruction
system.cpu0.commit.op_class_0::SimdFloatCmp            0      0.00%     56.41% # Class of committed instruction
system.cpu0.commit.op_class_0::SimdFloatCvt            0      0.00%     56.41% # Class of committed instruction
system.cpu0.commit.op_class_0::SimdFloatDiv            0      0.00%     56.41% # Class of committed instruction
system.cpu0.commit.op_class_0::SimdFloatMisc            0      0.00%     56.41% # Class of committed instruction
system.cpu0.commit.op_class_0::SimdFloatMult            0      0.00%     56.41% # Class of committed instruction
system.cpu0.commit.op_class_0::SimdFloatMultAcc            0      0.00%     56.41% # Class of committed instruction
system.cpu0.commit.op_class_0::SimdFloatSqrt            0      0.00%     56.41% # Class of committed instruction
system.cpu0.commit.op_class_0::SimdReduceAdd            0      0.00%     56.41% # Class of committed instruction
system.cpu0.commit.op_class_0::SimdReduceAlu            0      0.00%     56.41% # Class of committed instruction
system.cpu0.commit.op_class_0::SimdReduceCmp            0      0.00%     56.41% # Class of committed instruction
system.cpu0.commit.op_class_0::SimdFloatReduceAdd            0      0.00%     56.41% # Class of committed instruction
system.cpu0.commit.op_class_0::SimdFloatReduceCmp            0      0.00%     56.41% # Class of committed instruction
system.cpu0.commit.op_class_0::SimdAes              0      0.00%     56.41% # Class of committed instruction
system.cpu0.commit.op_class_0::SimdAesMix            0      0.00%     56.41% # Class of committed instruction
system.cpu0.commit.op_class_0::SimdSha1Hash            0      0.00%     56.41% # Class of committed instruction
system.cpu0.commit.op_class_0::SimdSha1Hash2            0      0.00%     56.41% # Class of committed instruction
system.cpu0.commit.op_class_0::SimdSha256Hash            0      0.00%     56.41% # Class of committed instruction
system.cpu0.commit.op_class_0::SimdSha256Hash2            0      0.00%     56.41% # Class of committed instruction
system.cpu0.commit.op_class_0::SimdShaSigma2            0      0.00%     56.41% # Class of committed instruction
system.cpu0.commit.op_class_0::SimdShaSigma3            0      0.00%     56.41% # Class of committed instruction
system.cpu0.commit.op_class_0::SimdPredAlu            0      0.00%     56.41% # Class of committed instruction
system.cpu0.commit.op_class_0::MemRead      175266940     31.17%     87.58% # Class of committed instruction
system.cpu0.commit.op_class_0::MemWrite      69814768     12.42%    100.00% # Class of committed instruction
=======
final_tick                               557044293500                       # Number of ticks from beginning of simulation (restored from checkpoints and never reset)
host_inst_rate                                  59573                       # Simulator instruction rate (inst/s)
host_mem_usage                                 701596                       # Number of bytes of host memory used
host_op_rate                                    59772                       # Simulator op (including micro ops) rate (op/s)
host_seconds                                 10281.77                       # Real time elapsed on the host
host_tick_rate                               54177846                       # Simulator tick rate (ticks/s)
sim_freq                                 1000000000000                       # Frequency of simulated ticks
sim_insts                                   612520016                       # Number of instructions simulated
sim_ops                                     614557592                       # Number of ops (including micro ops) simulated
sim_seconds                                  0.557044                       # Number of seconds simulated
sim_ticks                                557044293500                       # Number of ticks simulated
system.cpu0.branchPred.BTBCorrect                   0                       # Number of correct BTB predictions (this stat may not work properly.
system.cpu0.branchPred.BTBHitPct            88.151560                       # BTB Hit Percentage
system.cpu0.branchPred.BTBHits               83360911                       # Number of BTB hits
system.cpu0.branchPred.BTBLookups            94565441                       # Number of BTB lookups
system.cpu0.branchPred.RASInCorrect                 0                       # Number of incorrect RAS predictions.
system.cpu0.branchPred.condIncorrect         14696142                       # Number of conditional branches incorrect
system.cpu0.branchPred.condPredicted        121881451                       # Number of conditional branches predicted
system.cpu0.branchPred.indirectHits          10648496                       # Number of indirect target hits.
system.cpu0.branchPred.indirectLookups       10908498                       # Number of indirect predictor lookups.
system.cpu0.branchPred.indirectMisses          260002                       # Number of indirect misses.
system.cpu0.branchPred.lookups              157466582                       # Number of BP lookups
system.cpu0.branchPred.usedRAS                      0                       # Number of times the RAS was used to get a target.
system.cpu0.branchPredindirectMispredicted      1061266                       # Number of mispredicted indirect branches.
system.cpu0.commit.amos                       1018202                       # Number of atomic instructions committed
system.cpu0.commit.branchMispredicts          8252996                       # The number of times a branch was mispredicted
system.cpu0.commit.branches                 143197062                       # Number of branches committed
system.cpu0.commit.bw_lim_events             15598034                       # number cycles where commit BW limit reached
system.cpu0.commit.commitNonSpecStalls        3058478                       # The number of times commit has been forced to stall to communicate backwards
system.cpu0.commit.commitSquashedInsts       43885388                       # The number of squashed insts skipped by commit
system.cpu0.commit.committedInsts           580258240                       # Number of instructions committed
system.cpu0.commit.committedOps             581277723                       # Number of ops (including micro ops) committed
system.cpu0.commit.committed_per_cycle::samples    994059135                       # Number of insts commited each cycle
system.cpu0.commit.committed_per_cycle::mean     0.584752                       # Number of insts commited each cycle
system.cpu0.commit.committed_per_cycle::stdev     1.339506                       # Number of insts commited each cycle
system.cpu0.commit.committed_per_cycle::underflows            0      0.00%      0.00% # Number of insts commited each cycle
system.cpu0.commit.committed_per_cycle::0    712756726     71.70%     71.70% # Number of insts commited each cycle
system.cpu0.commit.committed_per_cycle::1    165892928     16.69%     88.39% # Number of insts commited each cycle
system.cpu0.commit.committed_per_cycle::2     42196243      4.24%     92.63% # Number of insts commited each cycle
system.cpu0.commit.committed_per_cycle::3     37186880      3.74%     96.38% # Number of insts commited each cycle
system.cpu0.commit.committed_per_cycle::4     12483038      1.26%     97.63% # Number of insts commited each cycle
system.cpu0.commit.committed_per_cycle::5      4280294      0.43%     98.06% # Number of insts commited each cycle
system.cpu0.commit.committed_per_cycle::6      2341169      0.24%     98.30% # Number of insts commited each cycle
system.cpu0.commit.committed_per_cycle::7      1323823      0.13%     98.43% # Number of insts commited each cycle
system.cpu0.commit.committed_per_cycle::8     15598034      1.57%    100.00% # Number of insts commited each cycle
system.cpu0.commit.committed_per_cycle::overflows            0      0.00%    100.00% # Number of insts commited each cycle
system.cpu0.commit.committed_per_cycle::min_value            0                       # Number of insts commited each cycle
system.cpu0.commit.committed_per_cycle::max_value            8                       # Number of insts commited each cycle
system.cpu0.commit.committed_per_cycle::total    994059135                       # Number of insts commited each cycle
system.cpu0.commit.fp_insts                        50                       # Number of committed floating point instructions.
system.cpu0.commit.function_calls            11887229                       # Number of function calls committed.
system.cpu0.commit.int_insts                561258700                       # Number of committed integer instructions.
system.cpu0.commit.loads                    179945626                       # Number of loads committed
system.cpu0.commit.membars                    2037585                       # Number of memory barriers committed
system.cpu0.commit.op_class_0::No_OpClass      2037591      0.35%      0.35% # Class of committed instruction
system.cpu0.commit.op_class_0::IntAlu       322212788     55.43%     55.78% # Class of committed instruction
system.cpu0.commit.op_class_0::IntMult        4137068      0.71%     56.49% # Class of committed instruction
system.cpu0.commit.op_class_0::IntDiv         1017773      0.18%     56.67% # Class of committed instruction
system.cpu0.commit.op_class_0::FloatAdd             0      0.00%     56.67% # Class of committed instruction
system.cpu0.commit.op_class_0::FloatCmp             4      0.00%     56.67% # Class of committed instruction
system.cpu0.commit.op_class_0::FloatCvt            12      0.00%     56.67% # Class of committed instruction
system.cpu0.commit.op_class_0::FloatMult            0      0.00%     56.67% # Class of committed instruction
system.cpu0.commit.op_class_0::FloatMultAcc            0      0.00%     56.67% # Class of committed instruction
system.cpu0.commit.op_class_0::FloatDiv             2      0.00%     56.67% # Class of committed instruction
system.cpu0.commit.op_class_0::FloatMisc            4      0.00%     56.67% # Class of committed instruction
system.cpu0.commit.op_class_0::FloatSqrt            0      0.00%     56.67% # Class of committed instruction
system.cpu0.commit.op_class_0::SimdAdd              0      0.00%     56.67% # Class of committed instruction
system.cpu0.commit.op_class_0::SimdAddAcc            0      0.00%     56.67% # Class of committed instruction
system.cpu0.commit.op_class_0::SimdAlu              0      0.00%     56.67% # Class of committed instruction
system.cpu0.commit.op_class_0::SimdCmp              0      0.00%     56.67% # Class of committed instruction
system.cpu0.commit.op_class_0::SimdCvt              0      0.00%     56.67% # Class of committed instruction
system.cpu0.commit.op_class_0::SimdMisc             0      0.00%     56.67% # Class of committed instruction
system.cpu0.commit.op_class_0::SimdMult             0      0.00%     56.67% # Class of committed instruction
system.cpu0.commit.op_class_0::SimdMultAcc            0      0.00%     56.67% # Class of committed instruction
system.cpu0.commit.op_class_0::SimdShift            0      0.00%     56.67% # Class of committed instruction
system.cpu0.commit.op_class_0::SimdShiftAcc            0      0.00%     56.67% # Class of committed instruction
system.cpu0.commit.op_class_0::SimdDiv              0      0.00%     56.67% # Class of committed instruction
system.cpu0.commit.op_class_0::SimdSqrt             0      0.00%     56.67% # Class of committed instruction
system.cpu0.commit.op_class_0::SimdFloatAdd            0      0.00%     56.67% # Class of committed instruction
system.cpu0.commit.op_class_0::SimdFloatAlu            0      0.00%     56.67% # Class of committed instruction
system.cpu0.commit.op_class_0::SimdFloatCmp            0      0.00%     56.67% # Class of committed instruction
system.cpu0.commit.op_class_0::SimdFloatCvt            0      0.00%     56.67% # Class of committed instruction
system.cpu0.commit.op_class_0::SimdFloatDiv            0      0.00%     56.67% # Class of committed instruction
system.cpu0.commit.op_class_0::SimdFloatMisc            0      0.00%     56.67% # Class of committed instruction
system.cpu0.commit.op_class_0::SimdFloatMult            0      0.00%     56.67% # Class of committed instruction
system.cpu0.commit.op_class_0::SimdFloatMultAcc            0      0.00%     56.67% # Class of committed instruction
system.cpu0.commit.op_class_0::SimdFloatSqrt            0      0.00%     56.67% # Class of committed instruction
system.cpu0.commit.op_class_0::SimdReduceAdd            0      0.00%     56.67% # Class of committed instruction
system.cpu0.commit.op_class_0::SimdReduceAlu            0      0.00%     56.67% # Class of committed instruction
system.cpu0.commit.op_class_0::SimdReduceCmp            0      0.00%     56.67% # Class of committed instruction
system.cpu0.commit.op_class_0::SimdFloatReduceAdd            0      0.00%     56.67% # Class of committed instruction
system.cpu0.commit.op_class_0::SimdFloatReduceCmp            0      0.00%     56.67% # Class of committed instruction
system.cpu0.commit.op_class_0::SimdAes              0      0.00%     56.67% # Class of committed instruction
system.cpu0.commit.op_class_0::SimdAesMix            0      0.00%     56.67% # Class of committed instruction
system.cpu0.commit.op_class_0::SimdSha1Hash            0      0.00%     56.67% # Class of committed instruction
system.cpu0.commit.op_class_0::SimdSha1Hash2            0      0.00%     56.67% # Class of committed instruction
system.cpu0.commit.op_class_0::SimdSha256Hash            0      0.00%     56.67% # Class of committed instruction
system.cpu0.commit.op_class_0::SimdSha256Hash2            0      0.00%     56.67% # Class of committed instruction
system.cpu0.commit.op_class_0::SimdShaSigma2            0      0.00%     56.67% # Class of committed instruction
system.cpu0.commit.op_class_0::SimdShaSigma3            0      0.00%     56.67% # Class of committed instruction
system.cpu0.commit.op_class_0::SimdPredAlu            0      0.00%     56.67% # Class of committed instruction
system.cpu0.commit.op_class_0::MemRead      180963820     31.13%     87.80% # Class of committed instruction
system.cpu0.commit.op_class_0::MemWrite      70908633     12.20%    100.00% # Class of committed instruction
>>>>>>> 6be7a0502e78ebf80a09b838e3e9c0d652379c93
system.cpu0.commit.op_class_0::FloatMemRead            8      0.00%    100.00% # Class of committed instruction
system.cpu0.commit.op_class_0::FloatMemWrite           20      0.00%    100.00% # Class of committed instruction
system.cpu0.commit.op_class_0::IprAccess            0      0.00%    100.00% # Class of committed instruction
system.cpu0.commit.op_class_0::InstPrefetch            0      0.00%    100.00% # Class of committed instruction
<<<<<<< HEAD
system.cpu0.commit.op_class_0::total        562295239                       # Class of committed instruction
system.cpu0.commit.refs                     245081736                       # Number of memory references committed
system.cpu0.commit.swp_count                        0                       # Number of s/w prefetches committed
system.cpu0.commit.vec_insts                        0                       # Number of committed Vector instructions.
system.cpu0.committedInsts                  561784569                       # Number of Instructions Simulated
system.cpu0.committedOps                    562295239                       # Number of Ops (including micro ops) Simulated
system.cpu0.cpi                              2.202941                       # CPI: Cycles Per Instruction
system.cpu0.cpi_total                        2.202941                       # CPI: Total CPI of All Threads
system.cpu0.decode.BlockedCycles            115230303                       # Number of cycles decode is blocked
system.cpu0.decode.BranchMispred              2918707                       # Number of times decode detected a branch misprediction
system.cpu0.decode.BranchResolved            75529539                       # Number of times decode resolved a branch
system.cpu0.decode.DecodedInsts             624459121                       # Number of instructions handled by decode
system.cpu0.decode.IdleCycles               376680013                       # Number of cycles decode is idle
system.cpu0.decode.RunCycles                429967452                       # Number of cycles decode is running
system.cpu0.decode.SquashCycles               5606672                       # Number of cycles decode is squashing
system.cpu0.decode.SquashedInsts              9322315                       # Number of squashed instructions handled by decode
system.cpu0.decode.UnblockCycles              2599180                       # Number of cycles decode is unblocking
=======
system.cpu0.commit.op_class_0::total        581277723                       # Class of committed instruction
system.cpu0.commit.refs                     251872481                       # Number of memory references committed
system.cpu0.commit.swp_count                        0                       # Number of s/w prefetches committed
system.cpu0.commit.vec_insts                        0                       # Number of committed Vector instructions.
system.cpu0.committedInsts                  580258240                       # Number of Instructions Simulated
system.cpu0.committedOps                    581277723                       # Number of Ops (including micro ops) Simulated
system.cpu0.cpi                              1.899319                       # CPI: Cycles Per Instruction
system.cpu0.cpi_total                        1.899319                       # CPI: Total CPI of All Threads
system.cpu0.decode.BlockedCycles            175230237                       # Number of cycles decode is blocked
system.cpu0.decode.BranchMispred              6450346                       # Number of times decode detected a branch misprediction
system.cpu0.decode.BranchResolved            81349454                       # Number of times decode resolved a branch
system.cpu0.decode.DecodedInsts             644693996                       # Number of instructions handled by decode
system.cpu0.decode.IdleCycles               373779404                       # Number of cycles decode is idle
system.cpu0.decode.RunCycles                445432873                       # Number of cycles decode is running
system.cpu0.decode.SquashCycles               8257600                       # Number of cycles decode is squashing
system.cpu0.decode.SquashedInsts              9677799                       # Number of squashed instructions handled by decode
system.cpu0.decode.UnblockCycles              2893404                       # Number of cycles decode is unblocking
>>>>>>> 6be7a0502e78ebf80a09b838e3e9c0d652379c93
system.cpu0.dtb.accesses                            0                       # DTB accesses
system.cpu0.dtb.hits                                0                       # DTB hits
system.cpu0.dtb.misses                              0                       # DTB misses
system.cpu0.dtb.read_accesses                       0                       # DTB read accesses
system.cpu0.dtb.read_hits                           0                       # DTB read hits
system.cpu0.dtb.read_misses                         0                       # DTB read misses
system.cpu0.dtb.write_accesses                      0                       # DTB write accesses
system.cpu0.dtb.write_hits                          0                       # DTB write hits
system.cpu0.dtb.write_misses                        0                       # DTB write misses
<<<<<<< HEAD
system.cpu0.fetch.Branches                  154559549                       # Number of branches that fetch encountered
system.cpu0.fetch.CacheLines                101860536                       # Number of cache lines fetched
system.cpu0.fetch.Cycles                    552410558                       # Number of cycles fetch has run and was not squashing or blocked
system.cpu0.fetch.IcacheSquashes              3382531                       # Number of outstanding Icache misses that were squashed
system.cpu0.fetch.IcacheWaitRetryStallCycles          183                       # Number of stall cycles due to full MSHR
system.cpu0.fetch.Insts                     642004955                       # Number of instructions fetch has processed
system.cpu0.fetch.MiscStallCycles                  21                       # Number of cycles fetch has spent waiting on interrupts, or bad addresses, or out of MSHRs
system.cpu0.fetch.PendingTrapStallCycles           52                       # Number of stall cycles due to pending traps
system.cpu0.fetch.SquashCycles               17043604                       # Number of cycles fetch has spent squashing
system.cpu0.fetch.branchRate                 0.124889                       # Number of branch fetches per cycle
system.cpu0.fetch.icacheStallCycles         369151004                       # Number of cycles fetch is stalled on an Icache miss
system.cpu0.fetch.predictedBranches          88438982                       # Number of branches that fetch has predicted taken
system.cpu0.fetch.rate                       0.518759                       # Number of inst fetches per cycle
system.cpu0.fetch.rateDist::samples         930083620                       # Number of instructions fetched each cycle (Total)
system.cpu0.fetch.rateDist::mean             0.690815                       # Number of instructions fetched each cycle (Total)
system.cpu0.fetch.rateDist::stdev            0.927896                       # Number of instructions fetched each cycle (Total)
system.cpu0.fetch.rateDist::underflows              0      0.00%      0.00% # Number of instructions fetched each cycle (Total)
system.cpu0.fetch.rateDist::0               480790563     51.69%     51.69% # Number of instructions fetched each cycle (Total)
system.cpu0.fetch.rateDist::1               332048031     35.70%     87.39% # Number of instructions fetched each cycle (Total)
system.cpu0.fetch.rateDist::2                60752449      6.53%     93.93% # Number of instructions fetched each cycle (Total)
system.cpu0.fetch.rateDist::3                43119049      4.64%     98.56% # Number of instructions fetched each cycle (Total)
system.cpu0.fetch.rateDist::4                10469870      1.13%     99.69% # Number of instructions fetched each cycle (Total)
system.cpu0.fetch.rateDist::5                 1737612      0.19%     99.87% # Number of instructions fetched each cycle (Total)
system.cpu0.fetch.rateDist::6                  144767      0.02%     99.89% # Number of instructions fetched each cycle (Total)
system.cpu0.fetch.rateDist::7                     476      0.00%     99.89% # Number of instructions fetched each cycle (Total)
system.cpu0.fetch.rateDist::8                 1020803      0.11%    100.00% # Number of instructions fetched each cycle (Total)
system.cpu0.fetch.rateDist::overflows               0      0.00%    100.00% # Number of instructions fetched each cycle (Total)
system.cpu0.fetch.rateDist::min_value               0                       # Number of instructions fetched each cycle (Total)
system.cpu0.fetch.rateDist::max_value               8                       # Number of instructions fetched each cycle (Total)
system.cpu0.fetch.rateDist::total           930083620                       # Number of instructions fetched each cycle (Total)
system.cpu0.fp_regfile_reads                       44                       # number of floating regfile reads
system.cpu0.fp_regfile_writes                      25                       # number of floating regfile writes
system.cpu0.idleCycles                      307494783                       # Total number of cycles that the CPU has spent unscheduled due to idling
system.cpu0.iew.branchMispredicts             5708970                       # Number of branch mispredicts detected at execute
system.cpu0.iew.exec_branches               146118439                       # Number of branches executed
system.cpu0.iew.exec_nop                            0                       # number of nop insts executed
system.cpu0.iew.exec_rate                    0.491695                       # Inst execution rate
system.cpu0.iew.exec_refs                   273475400                       # number of memory reference insts executed
system.cpu0.iew.exec_stores                  76273047                       # Number of stores executed
system.cpu0.iew.exec_swp                            0                       # number of swp insts executed
system.cpu0.iew.iewBlockCycles               89116039                       # Number of cycles IEW is blocking
system.cpu0.iew.iewDispLoadInsts            196825468                       # Number of dispatched load instructions
system.cpu0.iew.iewDispNonSpecInsts            512642                       # Number of dispatched non-speculative instructions
system.cpu0.iew.iewDispSquashedInsts          2458200                       # Number of squashed instructions skipped by dispatch
system.cpu0.iew.iewDispStoreInsts            77160018                       # Number of dispatched store instructions
system.cpu0.iew.iewDispatchedInsts          613342530                       # Number of instructions dispatched to IQ
system.cpu0.iew.iewExecLoadInsts            197202353                       # Number of load instructions executed
system.cpu0.iew.iewExecSquashedInsts          3809819                       # Number of squashed instructions skipped in execute
system.cpu0.iew.iewExecutedInsts            608510540                       # Number of executed instructions
system.cpu0.iew.iewIQFullEvents                494553                       # Number of times the IQ has become full, causing a stall
system.cpu0.iew.iewIdleCycles                       0                       # Number of cycles IEW is idle
system.cpu0.iew.iewLSQFullEvents              2147044                       # Number of times the LSQ has become full, causing a stall
system.cpu0.iew.iewSquashCycles               5606672                       # Number of cycles IEW is squashing
system.cpu0.iew.iewUnblockCycles              3213508                       # Number of cycles IEW is unblocking
system.cpu0.iew.lsq.thread0.blockedLoads            0                       # Number of blocked loads due to partial load-store forwarding
system.cpu0.iew.lsq.thread0.cacheBlocked        69480                       # Number of times an access to memory failed due to the cache being blocked
system.cpu0.iew.lsq.thread0.forwLoads        10311071                       # Number of loads that had data forwarded from stores
system.cpu0.iew.lsq.thread0.ignoredResponses        29027                       # Number of memory responses ignored because the instruction is squashed
system.cpu0.iew.lsq.thread0.invAddrLoads            0                       # Number of loads ignored due to an invalid address
system.cpu0.iew.lsq.thread0.invAddrSwpfs            0                       # Number of software prefetches ignored due to an invalid address
system.cpu0.iew.lsq.thread0.memOrderViolation         4752                       # Number of memory ordering violations
system.cpu0.iew.lsq.thread0.rescheduledLoads      3498675                       # Number of loads that were rescheduled
system.cpu0.iew.lsq.thread0.squashedLoads     22067914                       # Number of loads squashed
system.cpu0.iew.lsq.thread0.squashedStores      6835836                       # Number of stores squashed
system.cpu0.iew.memOrderViolationEvents          4752                       # Number of memory order violations
system.cpu0.iew.predictedNotTakenIncorrect       821898                       # Number of branches that were predicted not taken incorrectly
system.cpu0.iew.predictedTakenIncorrect       4887072                       # Number of branches that were predicted taken incorrectly
system.cpu0.iew.wb_consumers                271162366                       # num instructions consuming a value
system.cpu0.iew.wb_count                    602124770                       # cumulative count of insts written-back
system.cpu0.iew.wb_fanout                    0.836971                       # average fanout of values written-back
system.cpu0.iew.wb_producers                226954958                       # num instructions producing a value
system.cpu0.iew.wb_rate                      0.486535                       # insts written-back per cycle
system.cpu0.iew.wb_sent                     602221987                       # cumulative count of insts sent to commit
system.cpu0.int_regfile_reads               740239503                       # number of integer regfile reads
system.cpu0.int_regfile_writes              385334692                       # number of integer regfile writes
system.cpu0.ipc                              0.453939                       # IPC: Instructions Per Cycle
system.cpu0.ipc_total                        0.453939                       # IPC: Total IPC of All Threads
system.cpu0.iq.FU_type_0::No_OpClass          1020977      0.17%      0.17% # Type of FU issued
system.cpu0.iq.FU_type_0::IntAlu            330943091     54.05%     54.21% # Type of FU issued
system.cpu0.iq.FU_type_0::IntMult             4213768      0.69%     54.90% # Type of FU issued
system.cpu0.iq.FU_type_0::IntDiv              1018118      0.17%     55.07% # Type of FU issued
system.cpu0.iq.FU_type_0::FloatAdd                  0      0.00%     55.07% # Type of FU issued
system.cpu0.iq.FU_type_0::FloatCmp                  4      0.00%     55.07% # Type of FU issued
system.cpu0.iq.FU_type_0::FloatCvt                 12      0.00%     55.07% # Type of FU issued
system.cpu0.iq.FU_type_0::FloatMult                 0      0.00%     55.07% # Type of FU issued
system.cpu0.iq.FU_type_0::FloatMultAcc              0      0.00%     55.07% # Type of FU issued
system.cpu0.iq.FU_type_0::FloatDiv                  2      0.00%     55.07% # Type of FU issued
system.cpu0.iq.FU_type_0::FloatMisc                 4      0.00%     55.07% # Type of FU issued
system.cpu0.iq.FU_type_0::FloatSqrt                 0      0.00%     55.07% # Type of FU issued
system.cpu0.iq.FU_type_0::SimdAdd                   0      0.00%     55.07% # Type of FU issued
system.cpu0.iq.FU_type_0::SimdAddAcc                0      0.00%     55.07% # Type of FU issued
system.cpu0.iq.FU_type_0::SimdAlu                   0      0.00%     55.07% # Type of FU issued
system.cpu0.iq.FU_type_0::SimdCmp                   0      0.00%     55.07% # Type of FU issued
system.cpu0.iq.FU_type_0::SimdCvt                   0      0.00%     55.07% # Type of FU issued
system.cpu0.iq.FU_type_0::SimdMisc                  0      0.00%     55.07% # Type of FU issued
system.cpu0.iq.FU_type_0::SimdMult                  0      0.00%     55.07% # Type of FU issued
system.cpu0.iq.FU_type_0::SimdMultAcc               0      0.00%     55.07% # Type of FU issued
system.cpu0.iq.FU_type_0::SimdShift                 0      0.00%     55.07% # Type of FU issued
system.cpu0.iq.FU_type_0::SimdShiftAcc              0      0.00%     55.07% # Type of FU issued
system.cpu0.iq.FU_type_0::SimdDiv                   0      0.00%     55.07% # Type of FU issued
system.cpu0.iq.FU_type_0::SimdSqrt                  0      0.00%     55.07% # Type of FU issued
system.cpu0.iq.FU_type_0::SimdFloatAdd              0      0.00%     55.07% # Type of FU issued
system.cpu0.iq.FU_type_0::SimdFloatAlu              0      0.00%     55.07% # Type of FU issued
system.cpu0.iq.FU_type_0::SimdFloatCmp              0      0.00%     55.07% # Type of FU issued
system.cpu0.iq.FU_type_0::SimdFloatCvt              0      0.00%     55.07% # Type of FU issued
system.cpu0.iq.FU_type_0::SimdFloatDiv              0      0.00%     55.07% # Type of FU issued
system.cpu0.iq.FU_type_0::SimdFloatMisc             0      0.00%     55.07% # Type of FU issued
system.cpu0.iq.FU_type_0::SimdFloatMult             0      0.00%     55.07% # Type of FU issued
system.cpu0.iq.FU_type_0::SimdFloatMultAcc            0      0.00%     55.07% # Type of FU issued
system.cpu0.iq.FU_type_0::SimdFloatSqrt             0      0.00%     55.07% # Type of FU issued
system.cpu0.iq.FU_type_0::SimdReduceAdd             0      0.00%     55.07% # Type of FU issued
system.cpu0.iq.FU_type_0::SimdReduceAlu             0      0.00%     55.07% # Type of FU issued
system.cpu0.iq.FU_type_0::SimdReduceCmp             0      0.00%     55.07% # Type of FU issued
system.cpu0.iq.FU_type_0::SimdFloatReduceAdd            0      0.00%     55.07% # Type of FU issued
system.cpu0.iq.FU_type_0::SimdFloatReduceCmp            0      0.00%     55.07% # Type of FU issued
system.cpu0.iq.FU_type_0::SimdAes                   0      0.00%     55.07% # Type of FU issued
system.cpu0.iq.FU_type_0::SimdAesMix                0      0.00%     55.07% # Type of FU issued
system.cpu0.iq.FU_type_0::SimdSha1Hash              0      0.00%     55.07% # Type of FU issued
system.cpu0.iq.FU_type_0::SimdSha1Hash2             0      0.00%     55.07% # Type of FU issued
system.cpu0.iq.FU_type_0::SimdSha256Hash            0      0.00%     55.07% # Type of FU issued
system.cpu0.iq.FU_type_0::SimdSha256Hash2            0      0.00%     55.07% # Type of FU issued
system.cpu0.iq.FU_type_0::SimdShaSigma2             0      0.00%     55.07% # Type of FU issued
system.cpu0.iq.FU_type_0::SimdShaSigma3             0      0.00%     55.07% # Type of FU issued
system.cpu0.iq.FU_type_0::SimdPredAlu               0      0.00%     55.07% # Type of FU issued
system.cpu0.iq.FU_type_0::MemRead           198983887     32.50%     87.57% # Type of FU issued
system.cpu0.iq.FU_type_0::MemWrite           76140460     12.43%    100.00% # Type of FU issued
system.cpu0.iq.FU_type_0::FloatMemRead             16      0.00%    100.00% # Type of FU issued
system.cpu0.iq.FU_type_0::FloatMemWrite            20      0.00%    100.00% # Type of FU issued
system.cpu0.iq.FU_type_0::IprAccess                 0      0.00%    100.00% # Type of FU issued
system.cpu0.iq.FU_type_0::InstPrefetch              0      0.00%    100.00% # Type of FU issued
system.cpu0.iq.FU_type_0::total             612320359                       # Type of FU issued
system.cpu0.iq.fp_alu_accesses                     62                       # Number of floating point alu accesses
system.cpu0.iq.fp_inst_queue_reads                120                       # Number of floating instruction queue reads
system.cpu0.iq.fp_inst_queue_wakeup_accesses           53                       # Number of floating instruction queue wakeup accesses
system.cpu0.iq.fp_inst_queue_writes                66                       # Number of floating instruction queue writes
system.cpu0.iq.fu_busy_cnt                     815544                       # FU busy when requested
system.cpu0.iq.fu_busy_rate                  0.001332                       # FU busy rate (busy events/executed inst)
system.cpu0.iq.fu_full::No_OpClass                  0      0.00%      0.00% # attempts to use FU when none available
system.cpu0.iq.fu_full::IntAlu                 156289     19.16%     19.16% # attempts to use FU when none available
system.cpu0.iq.fu_full::IntMult                     0      0.00%     19.16% # attempts to use FU when none available
system.cpu0.iq.fu_full::IntDiv                      0      0.00%     19.16% # attempts to use FU when none available
system.cpu0.iq.fu_full::FloatAdd                    0      0.00%     19.16% # attempts to use FU when none available
system.cpu0.iq.fu_full::FloatCmp                    0      0.00%     19.16% # attempts to use FU when none available
system.cpu0.iq.fu_full::FloatCvt                    0      0.00%     19.16% # attempts to use FU when none available
system.cpu0.iq.fu_full::FloatMult                   0      0.00%     19.16% # attempts to use FU when none available
system.cpu0.iq.fu_full::FloatMultAcc                0      0.00%     19.16% # attempts to use FU when none available
system.cpu0.iq.fu_full::FloatDiv                    0      0.00%     19.16% # attempts to use FU when none available
system.cpu0.iq.fu_full::FloatMisc                   0      0.00%     19.16% # attempts to use FU when none available
system.cpu0.iq.fu_full::FloatSqrt                   0      0.00%     19.16% # attempts to use FU when none available
system.cpu0.iq.fu_full::SimdAdd                     0      0.00%     19.16% # attempts to use FU when none available
system.cpu0.iq.fu_full::SimdAddAcc                  0      0.00%     19.16% # attempts to use FU when none available
system.cpu0.iq.fu_full::SimdAlu                     0      0.00%     19.16% # attempts to use FU when none available
system.cpu0.iq.fu_full::SimdCmp                     0      0.00%     19.16% # attempts to use FU when none available
system.cpu0.iq.fu_full::SimdCvt                     0      0.00%     19.16% # attempts to use FU when none available
system.cpu0.iq.fu_full::SimdMisc                    0      0.00%     19.16% # attempts to use FU when none available
system.cpu0.iq.fu_full::SimdMult                    0      0.00%     19.16% # attempts to use FU when none available
system.cpu0.iq.fu_full::SimdMultAcc                 0      0.00%     19.16% # attempts to use FU when none available
system.cpu0.iq.fu_full::SimdShift                   0      0.00%     19.16% # attempts to use FU when none available
system.cpu0.iq.fu_full::SimdShiftAcc                0      0.00%     19.16% # attempts to use FU when none available
system.cpu0.iq.fu_full::SimdDiv                     0      0.00%     19.16% # attempts to use FU when none available
system.cpu0.iq.fu_full::SimdSqrt                    0      0.00%     19.16% # attempts to use FU when none available
system.cpu0.iq.fu_full::SimdFloatAdd                0      0.00%     19.16% # attempts to use FU when none available
system.cpu0.iq.fu_full::SimdFloatAlu                0      0.00%     19.16% # attempts to use FU when none available
system.cpu0.iq.fu_full::SimdFloatCmp                0      0.00%     19.16% # attempts to use FU when none available
system.cpu0.iq.fu_full::SimdFloatCvt                0      0.00%     19.16% # attempts to use FU when none available
system.cpu0.iq.fu_full::SimdFloatDiv                0      0.00%     19.16% # attempts to use FU when none available
system.cpu0.iq.fu_full::SimdFloatMisc               0      0.00%     19.16% # attempts to use FU when none available
system.cpu0.iq.fu_full::SimdFloatMult               0      0.00%     19.16% # attempts to use FU when none available
system.cpu0.iq.fu_full::SimdFloatMultAcc            0      0.00%     19.16% # attempts to use FU when none available
system.cpu0.iq.fu_full::SimdFloatSqrt               0      0.00%     19.16% # attempts to use FU when none available
system.cpu0.iq.fu_full::SimdReduceAdd               0      0.00%     19.16% # attempts to use FU when none available
system.cpu0.iq.fu_full::SimdReduceAlu               0      0.00%     19.16% # attempts to use FU when none available
system.cpu0.iq.fu_full::SimdReduceCmp               0      0.00%     19.16% # attempts to use FU when none available
system.cpu0.iq.fu_full::SimdFloatReduceAdd            0      0.00%     19.16% # attempts to use FU when none available
system.cpu0.iq.fu_full::SimdFloatReduceCmp            0      0.00%     19.16% # attempts to use FU when none available
system.cpu0.iq.fu_full::SimdAes                     0      0.00%     19.16% # attempts to use FU when none available
system.cpu0.iq.fu_full::SimdAesMix                  0      0.00%     19.16% # attempts to use FU when none available
system.cpu0.iq.fu_full::SimdSha1Hash                0      0.00%     19.16% # attempts to use FU when none available
system.cpu0.iq.fu_full::SimdSha1Hash2               0      0.00%     19.16% # attempts to use FU when none available
system.cpu0.iq.fu_full::SimdSha256Hash              0      0.00%     19.16% # attempts to use FU when none available
system.cpu0.iq.fu_full::SimdSha256Hash2             0      0.00%     19.16% # attempts to use FU when none available
system.cpu0.iq.fu_full::SimdShaSigma2               0      0.00%     19.16% # attempts to use FU when none available
system.cpu0.iq.fu_full::SimdShaSigma3               0      0.00%     19.16% # attempts to use FU when none available
system.cpu0.iq.fu_full::SimdPredAlu                 0      0.00%     19.16% # attempts to use FU when none available
system.cpu0.iq.fu_full::MemRead                572498     70.20%     89.36% # attempts to use FU when none available
system.cpu0.iq.fu_full::MemWrite                86753     10.64%    100.00% # attempts to use FU when none available
=======
system.cpu0.fetch.Branches                  157466582                       # Number of branches that fetch encountered
system.cpu0.fetch.CacheLines                108926054                       # Number of cache lines fetched
system.cpu0.fetch.Cycles                    631170404                       # Number of cycles fetch has run and was not squashing or blocked
system.cpu0.fetch.IcacheSquashes              3954270                       # Number of outstanding Icache misses that were squashed
system.cpu0.fetch.IcacheWaitRetryStallCycles          172                       # Number of stall cycles due to full MSHR
system.cpu0.fetch.Insts                     663043053                       # Number of instructions fetch has processed
system.cpu0.fetch.MiscStallCycles                  15                       # Number of cycles fetch has spent waiting on interrupts, or bad addresses, or out of MSHRs
system.cpu0.fetch.PendingTrapStallCycles           31                       # Number of stall cycles due to pending traps
system.cpu0.fetch.SquashCycles               29401500                       # Number of cycles fetch has spent squashing
system.cpu0.fetch.branchRate                 0.142879                       # Number of branch fetches per cycle
system.cpu0.fetch.icacheStallCycles         359722146                       # Number of cycles fetch is stalled on an Icache miss
system.cpu0.fetch.predictedBranches          94009407                       # Number of branches that fetch has predicted taken
system.cpu0.fetch.rate                       0.601620                       # Number of inst fetches per cycle
system.cpu0.fetch.rateDist::samples        1005593518                       # Number of instructions fetched each cycle (Total)
system.cpu0.fetch.rateDist::mean             0.660369                       # Number of instructions fetched each cycle (Total)
system.cpu0.fetch.rateDist::stdev            0.912409                       # Number of instructions fetched each cycle (Total)
system.cpu0.fetch.rateDist::underflows              0      0.00%      0.00% # Number of instructions fetched each cycle (Total)
system.cpu0.fetch.rateDist::0               538130356     53.51%     53.51% # Number of instructions fetched each cycle (Total)
system.cpu0.fetch.rateDist::1               347882336     34.59%     88.11% # Number of instructions fetched each cycle (Total)
system.cpu0.fetch.rateDist::2                62199311      6.19%     94.29% # Number of instructions fetched each cycle (Total)
system.cpu0.fetch.rateDist::3                44004520      4.38%     98.67% # Number of instructions fetched each cycle (Total)
system.cpu0.fetch.rateDist::4                10345841      1.03%     99.70% # Number of instructions fetched each cycle (Total)
system.cpu0.fetch.rateDist::5                 1842039      0.18%     99.88% # Number of instructions fetched each cycle (Total)
system.cpu0.fetch.rateDist::6                  168846      0.02%     99.90% # Number of instructions fetched each cycle (Total)
system.cpu0.fetch.rateDist::7                     438      0.00%     99.90% # Number of instructions fetched each cycle (Total)
system.cpu0.fetch.rateDist::8                 1019831      0.10%    100.00% # Number of instructions fetched each cycle (Total)
system.cpu0.fetch.rateDist::overflows               0      0.00%    100.00% # Number of instructions fetched each cycle (Total)
system.cpu0.fetch.rateDist::min_value               0                       # Number of instructions fetched each cycle (Total)
system.cpu0.fetch.rateDist::max_value               8                       # Number of instructions fetched each cycle (Total)
system.cpu0.fetch.rateDist::total          1005593518                       # Number of instructions fetched each cycle (Total)
system.cpu0.fp_regfile_reads                       44                       # number of floating regfile reads
system.cpu0.fp_regfile_writes                      22                       # number of floating regfile writes
system.cpu0.idleCycles                       96502174                       # Total number of cycles that the CPU has spent unscheduled due to idling
system.cpu0.iew.branchMispredicts             8371569                       # Number of branch mispredicts detected at execute
system.cpu0.iew.exec_branches               147067346                       # Number of branches executed
system.cpu0.iew.exec_nop                            0                       # number of nop insts executed
system.cpu0.iew.exec_rate                    0.559037                       # Inst execution rate
system.cpu0.iew.exec_refs                   274915949                       # number of memory reference insts executed
system.cpu0.iew.exec_stores                  74338855                       # Number of stores executed
system.cpu0.iew.exec_swp                            0                       # number of swp insts executed
system.cpu0.iew.iewBlockCycles              147014615                       # Number of cycles IEW is blocking
system.cpu0.iew.iewDispLoadInsts            202080831                       # Number of dispatched load instructions
system.cpu0.iew.iewDispNonSpecInsts           1021118                       # Number of dispatched non-speculative instructions
system.cpu0.iew.iewDispSquashedInsts          5268098                       # Number of squashed instructions skipped by dispatch
system.cpu0.iew.iewDispStoreInsts            75159145                       # Number of dispatched store instructions
system.cpu0.iew.iewDispatchedInsts          625145008                       # Number of instructions dispatched to IQ
system.cpu0.iew.iewExecLoadInsts            200577094                       # Number of load instructions executed
system.cpu0.iew.iewExecSquashedInsts          7066181                       # Number of squashed instructions skipped in execute
system.cpu0.iew.iewExecutedInsts            616112109                       # Number of executed instructions
system.cpu0.iew.iewIQFullEvents                944582                       # Number of times the IQ has become full, causing a stall
system.cpu0.iew.iewIdleCycles                       0                       # Number of cycles IEW is idle
system.cpu0.iew.iewLSQFullEvents              2108833                       # Number of times the LSQ has become full, causing a stall
system.cpu0.iew.iewSquashCycles               8257600                       # Number of cycles IEW is squashing
system.cpu0.iew.iewUnblockCycles              4154592                       # Number of cycles IEW is unblocking
system.cpu0.iew.lsq.thread0.blockedLoads            0                       # Number of blocked loads due to partial load-store forwarding
system.cpu0.iew.lsq.thread0.cacheBlocked        69842                       # Number of times an access to memory failed due to the cache being blocked
system.cpu0.iew.lsq.thread0.forwLoads         8987872                       # Number of loads that had data forwarded from stores
system.cpu0.iew.lsq.thread0.ignoredResponses        55664                       # Number of memory responses ignored because the instruction is squashed
system.cpu0.iew.lsq.thread0.invAddrLoads            0                       # Number of loads ignored due to an invalid address
system.cpu0.iew.lsq.thread0.invAddrSwpfs            0                       # Number of software prefetches ignored due to an invalid address
system.cpu0.iew.lsq.thread0.memOrderViolation         5110                       # Number of memory ordering violations
system.cpu0.iew.lsq.thread0.rescheduledLoads      2192580                       # Number of loads that were rescheduled
system.cpu0.iew.lsq.thread0.squashedLoads     22135205                       # Number of loads squashed
system.cpu0.iew.lsq.thread0.squashedStores      3232290                       # Number of stores squashed
system.cpu0.iew.memOrderViolationEvents          5110                       # Number of memory order violations
system.cpu0.iew.predictedNotTakenIncorrect       875505                       # Number of branches that were predicted not taken incorrectly
system.cpu0.iew.predictedTakenIncorrect       7496064                       # Number of branches that were predicted taken incorrectly
system.cpu0.iew.wb_consumers                274106687                       # num instructions consuming a value
system.cpu0.iew.wb_count                    608855724                       # cumulative count of insts written-back
system.cpu0.iew.wb_fanout                    0.839858                       # average fanout of values written-back
system.cpu0.iew.wb_producers                230210757                       # num instructions producing a value
system.cpu0.iew.wb_rate                      0.552453                       # insts written-back per cycle
system.cpu0.iew.wb_sent                     608903782                       # cumulative count of insts sent to commit
system.cpu0.int_regfile_reads               750722153                       # number of integer regfile reads
system.cpu0.int_regfile_writes              392006364                       # number of integer regfile writes
system.cpu0.ipc                              0.526504                       # IPC: Instructions Per Cycle
system.cpu0.ipc_total                        0.526504                       # IPC: Total IPC of All Threads
system.cpu0.iq.FU_type_0::No_OpClass          2038446      0.33%      0.33% # Type of FU issued
system.cpu0.iq.FU_type_0::IntAlu            337668936     54.18%     54.51% # Type of FU issued
system.cpu0.iq.FU_type_0::IntMult             4213104      0.68%     55.19% # Type of FU issued
system.cpu0.iq.FU_type_0::IntDiv              1018046      0.16%     55.35% # Type of FU issued
system.cpu0.iq.FU_type_0::FloatAdd                  0      0.00%     55.35% # Type of FU issued
system.cpu0.iq.FU_type_0::FloatCmp                  4      0.00%     55.35% # Type of FU issued
system.cpu0.iq.FU_type_0::FloatCvt                 12      0.00%     55.35% # Type of FU issued
system.cpu0.iq.FU_type_0::FloatMult                 0      0.00%     55.35% # Type of FU issued
system.cpu0.iq.FU_type_0::FloatMultAcc              0      0.00%     55.35% # Type of FU issued
system.cpu0.iq.FU_type_0::FloatDiv                  2      0.00%     55.35% # Type of FU issued
system.cpu0.iq.FU_type_0::FloatMisc                 4      0.00%     55.35% # Type of FU issued
system.cpu0.iq.FU_type_0::FloatSqrt                 0      0.00%     55.35% # Type of FU issued
system.cpu0.iq.FU_type_0::SimdAdd                   0      0.00%     55.35% # Type of FU issued
system.cpu0.iq.FU_type_0::SimdAddAcc                0      0.00%     55.35% # Type of FU issued
system.cpu0.iq.FU_type_0::SimdAlu                   0      0.00%     55.35% # Type of FU issued
system.cpu0.iq.FU_type_0::SimdCmp                   0      0.00%     55.35% # Type of FU issued
system.cpu0.iq.FU_type_0::SimdCvt                   0      0.00%     55.35% # Type of FU issued
system.cpu0.iq.FU_type_0::SimdMisc                  0      0.00%     55.35% # Type of FU issued
system.cpu0.iq.FU_type_0::SimdMult                  0      0.00%     55.35% # Type of FU issued
system.cpu0.iq.FU_type_0::SimdMultAcc               0      0.00%     55.35% # Type of FU issued
system.cpu0.iq.FU_type_0::SimdShift                 0      0.00%     55.35% # Type of FU issued
system.cpu0.iq.FU_type_0::SimdShiftAcc              0      0.00%     55.35% # Type of FU issued
system.cpu0.iq.FU_type_0::SimdDiv                   0      0.00%     55.35% # Type of FU issued
system.cpu0.iq.FU_type_0::SimdSqrt                  0      0.00%     55.35% # Type of FU issued
system.cpu0.iq.FU_type_0::SimdFloatAdd              0      0.00%     55.35% # Type of FU issued
system.cpu0.iq.FU_type_0::SimdFloatAlu              0      0.00%     55.35% # Type of FU issued
system.cpu0.iq.FU_type_0::SimdFloatCmp              0      0.00%     55.35% # Type of FU issued
system.cpu0.iq.FU_type_0::SimdFloatCvt              0      0.00%     55.35% # Type of FU issued
system.cpu0.iq.FU_type_0::SimdFloatDiv              0      0.00%     55.35% # Type of FU issued
system.cpu0.iq.FU_type_0::SimdFloatMisc             0      0.00%     55.35% # Type of FU issued
system.cpu0.iq.FU_type_0::SimdFloatMult             0      0.00%     55.35% # Type of FU issued
system.cpu0.iq.FU_type_0::SimdFloatMultAcc            0      0.00%     55.35% # Type of FU issued
system.cpu0.iq.FU_type_0::SimdFloatSqrt             0      0.00%     55.35% # Type of FU issued
system.cpu0.iq.FU_type_0::SimdReduceAdd             0      0.00%     55.35% # Type of FU issued
system.cpu0.iq.FU_type_0::SimdReduceAlu             0      0.00%     55.35% # Type of FU issued
system.cpu0.iq.FU_type_0::SimdReduceCmp             0      0.00%     55.35% # Type of FU issued
system.cpu0.iq.FU_type_0::SimdFloatReduceAdd            0      0.00%     55.35% # Type of FU issued
system.cpu0.iq.FU_type_0::SimdFloatReduceCmp            0      0.00%     55.35% # Type of FU issued
system.cpu0.iq.FU_type_0::SimdAes                   0      0.00%     55.35% # Type of FU issued
system.cpu0.iq.FU_type_0::SimdAesMix                0      0.00%     55.35% # Type of FU issued
system.cpu0.iq.FU_type_0::SimdSha1Hash              0      0.00%     55.35% # Type of FU issued
system.cpu0.iq.FU_type_0::SimdSha1Hash2             0      0.00%     55.35% # Type of FU issued
system.cpu0.iq.FU_type_0::SimdSha256Hash            0      0.00%     55.35% # Type of FU issued
system.cpu0.iq.FU_type_0::SimdSha256Hash2            0      0.00%     55.35% # Type of FU issued
system.cpu0.iq.FU_type_0::SimdShaSigma2             0      0.00%     55.35% # Type of FU issued
system.cpu0.iq.FU_type_0::SimdShaSigma3             0      0.00%     55.35% # Type of FU issued
system.cpu0.iq.FU_type_0::SimdPredAlu               0      0.00%     55.35% # Type of FU issued
system.cpu0.iq.FU_type_0::MemRead           204589325     32.83%     88.18% # Type of FU issued
system.cpu0.iq.FU_type_0::MemWrite           73650382     11.82%    100.00% # Type of FU issued
system.cpu0.iq.FU_type_0::FloatMemRead              9      0.00%    100.00% # Type of FU issued
system.cpu0.iq.FU_type_0::FloatMemWrite            20      0.00%    100.00% # Type of FU issued
system.cpu0.iq.FU_type_0::IprAccess                 0      0.00%    100.00% # Type of FU issued
system.cpu0.iq.FU_type_0::InstPrefetch              0      0.00%    100.00% # Type of FU issued
system.cpu0.iq.FU_type_0::total             623178290                       # Type of FU issued
system.cpu0.iq.fp_alu_accesses                     55                       # Number of floating point alu accesses
system.cpu0.iq.fp_inst_queue_reads                106                       # Number of floating instruction queue reads
system.cpu0.iq.fp_inst_queue_wakeup_accesses           50                       # Number of floating instruction queue wakeup accesses
system.cpu0.iq.fp_inst_queue_writes                58                       # Number of floating instruction queue writes
system.cpu0.iq.fu_busy_cnt                    1223183                       # FU busy when requested
system.cpu0.iq.fu_busy_rate                  0.001963                       # FU busy rate (busy events/executed inst)
system.cpu0.iq.fu_full::No_OpClass                  0      0.00%      0.00% # attempts to use FU when none available
system.cpu0.iq.fu_full::IntAlu                 196064     16.03%     16.03% # attempts to use FU when none available
system.cpu0.iq.fu_full::IntMult                     0      0.00%     16.03% # attempts to use FU when none available
system.cpu0.iq.fu_full::IntDiv                      0      0.00%     16.03% # attempts to use FU when none available
system.cpu0.iq.fu_full::FloatAdd                    0      0.00%     16.03% # attempts to use FU when none available
system.cpu0.iq.fu_full::FloatCmp                    0      0.00%     16.03% # attempts to use FU when none available
system.cpu0.iq.fu_full::FloatCvt                    0      0.00%     16.03% # attempts to use FU when none available
system.cpu0.iq.fu_full::FloatMult                   0      0.00%     16.03% # attempts to use FU when none available
system.cpu0.iq.fu_full::FloatMultAcc                0      0.00%     16.03% # attempts to use FU when none available
system.cpu0.iq.fu_full::FloatDiv                    0      0.00%     16.03% # attempts to use FU when none available
system.cpu0.iq.fu_full::FloatMisc                   0      0.00%     16.03% # attempts to use FU when none available
system.cpu0.iq.fu_full::FloatSqrt                   0      0.00%     16.03% # attempts to use FU when none available
system.cpu0.iq.fu_full::SimdAdd                     0      0.00%     16.03% # attempts to use FU when none available
system.cpu0.iq.fu_full::SimdAddAcc                  0      0.00%     16.03% # attempts to use FU when none available
system.cpu0.iq.fu_full::SimdAlu                     0      0.00%     16.03% # attempts to use FU when none available
system.cpu0.iq.fu_full::SimdCmp                     0      0.00%     16.03% # attempts to use FU when none available
system.cpu0.iq.fu_full::SimdCvt                     0      0.00%     16.03% # attempts to use FU when none available
system.cpu0.iq.fu_full::SimdMisc                    0      0.00%     16.03% # attempts to use FU when none available
system.cpu0.iq.fu_full::SimdMult                    0      0.00%     16.03% # attempts to use FU when none available
system.cpu0.iq.fu_full::SimdMultAcc                 0      0.00%     16.03% # attempts to use FU when none available
system.cpu0.iq.fu_full::SimdShift                   0      0.00%     16.03% # attempts to use FU when none available
system.cpu0.iq.fu_full::SimdShiftAcc                0      0.00%     16.03% # attempts to use FU when none available
system.cpu0.iq.fu_full::SimdDiv                     0      0.00%     16.03% # attempts to use FU when none available
system.cpu0.iq.fu_full::SimdSqrt                    0      0.00%     16.03% # attempts to use FU when none available
system.cpu0.iq.fu_full::SimdFloatAdd                0      0.00%     16.03% # attempts to use FU when none available
system.cpu0.iq.fu_full::SimdFloatAlu                0      0.00%     16.03% # attempts to use FU when none available
system.cpu0.iq.fu_full::SimdFloatCmp                0      0.00%     16.03% # attempts to use FU when none available
system.cpu0.iq.fu_full::SimdFloatCvt                0      0.00%     16.03% # attempts to use FU when none available
system.cpu0.iq.fu_full::SimdFloatDiv                0      0.00%     16.03% # attempts to use FU when none available
system.cpu0.iq.fu_full::SimdFloatMisc               0      0.00%     16.03% # attempts to use FU when none available
system.cpu0.iq.fu_full::SimdFloatMult               0      0.00%     16.03% # attempts to use FU when none available
system.cpu0.iq.fu_full::SimdFloatMultAcc            0      0.00%     16.03% # attempts to use FU when none available
system.cpu0.iq.fu_full::SimdFloatSqrt               0      0.00%     16.03% # attempts to use FU when none available
system.cpu0.iq.fu_full::SimdReduceAdd               0      0.00%     16.03% # attempts to use FU when none available
system.cpu0.iq.fu_full::SimdReduceAlu               0      0.00%     16.03% # attempts to use FU when none available
system.cpu0.iq.fu_full::SimdReduceCmp               0      0.00%     16.03% # attempts to use FU when none available
system.cpu0.iq.fu_full::SimdFloatReduceAdd            0      0.00%     16.03% # attempts to use FU when none available
system.cpu0.iq.fu_full::SimdFloatReduceCmp            0      0.00%     16.03% # attempts to use FU when none available
system.cpu0.iq.fu_full::SimdAes                     0      0.00%     16.03% # attempts to use FU when none available
system.cpu0.iq.fu_full::SimdAesMix                  0      0.00%     16.03% # attempts to use FU when none available
system.cpu0.iq.fu_full::SimdSha1Hash                0      0.00%     16.03% # attempts to use FU when none available
system.cpu0.iq.fu_full::SimdSha1Hash2               0      0.00%     16.03% # attempts to use FU when none available
system.cpu0.iq.fu_full::SimdSha256Hash              0      0.00%     16.03% # attempts to use FU when none available
system.cpu0.iq.fu_full::SimdSha256Hash2             0      0.00%     16.03% # attempts to use FU when none available
system.cpu0.iq.fu_full::SimdShaSigma2               0      0.00%     16.03% # attempts to use FU when none available
system.cpu0.iq.fu_full::SimdShaSigma3               0      0.00%     16.03% # attempts to use FU when none available
system.cpu0.iq.fu_full::SimdPredAlu                 0      0.00%     16.03% # attempts to use FU when none available
system.cpu0.iq.fu_full::MemRead                891166     72.86%     88.89% # attempts to use FU when none available
system.cpu0.iq.fu_full::MemWrite               135949     11.11%    100.00% # attempts to use FU when none available
>>>>>>> 6be7a0502e78ebf80a09b838e3e9c0d652379c93
system.cpu0.iq.fu_full::FloatMemRead                0      0.00%    100.00% # attempts to use FU when none available
system.cpu0.iq.fu_full::FloatMemWrite               4      0.00%    100.00% # attempts to use FU when none available
system.cpu0.iq.fu_full::IprAccess                   0      0.00%    100.00% # attempts to use FU when none available
system.cpu0.iq.fu_full::InstPrefetch                0      0.00%    100.00% # attempts to use FU when none available
<<<<<<< HEAD
system.cpu0.iq.int_alu_accesses             612114864                       # Number of integer alu accesses
system.cpu0.iq.int_inst_queue_reads        2155596554                       # Number of integer instruction queue reads
system.cpu0.iq.int_inst_queue_wakeup_accesses    602124717                       # Number of integer instruction queue wakeup accesses
system.cpu0.iq.int_inst_queue_writes        664393910                       # Number of integer instruction queue writes
system.cpu0.iq.iqInstsAdded                 611809775                       # Number of instructions added to the IQ (excludes non-spec)
system.cpu0.iq.iqInstsIssued                612320359                       # Number of instructions issued
system.cpu0.iq.iqNonSpecInstsAdded            1532755                       # Number of non-speculative instructions added to the IQ
system.cpu0.iq.iqSquashedInstsExamined       51047288                       # Number of squashed instructions iterated over during squash; mainly for profiling
system.cpu0.iq.iqSquashedInstsIssued            56792                       # Number of squashed instructions issued
system.cpu0.iq.iqSquashedNonSpecRemoved           392                       # Number of squashed non-spec instructions that were removed
system.cpu0.iq.iqSquashedOperandsExamined     11347263                       # Number of squashed operands that are examined and possibly removed from graph
system.cpu0.iq.issued_per_cycle::samples    930083620                       # Number of insts issued each cycle
system.cpu0.iq.issued_per_cycle::mean        0.658350                       # Number of insts issued each cycle
system.cpu0.iq.issued_per_cycle::stdev       0.865410                       # Number of insts issued each cycle
system.cpu0.iq.issued_per_cycle::underflows            0      0.00%      0.00% # Number of insts issued each cycle
system.cpu0.iq.issued_per_cycle::0          503912697     54.18%     54.18% # Number of insts issued each cycle
system.cpu0.iq.issued_per_cycle::1          285817860     30.73%     84.91% # Number of insts issued each cycle
system.cpu0.iq.issued_per_cycle::2          103428791     11.12%     96.03% # Number of insts issued each cycle
system.cpu0.iq.issued_per_cycle::3           29936911      3.22%     99.25% # Number of insts issued each cycle
system.cpu0.iq.issued_per_cycle::4            5835067      0.63%     99.88% # Number of insts issued each cycle
system.cpu0.iq.issued_per_cycle::5             616981      0.07%     99.94% # Number of insts issued each cycle
system.cpu0.iq.issued_per_cycle::6             392494      0.04%     99.98% # Number of insts issued each cycle
system.cpu0.iq.issued_per_cycle::7              88505      0.01%     99.99% # Number of insts issued each cycle
system.cpu0.iq.issued_per_cycle::8              54314      0.01%    100.00% # Number of insts issued each cycle
system.cpu0.iq.issued_per_cycle::overflows            0      0.00%    100.00% # Number of insts issued each cycle
system.cpu0.iq.issued_per_cycle::min_value            0                       # Number of insts issued each cycle
system.cpu0.iq.issued_per_cycle::max_value            8                       # Number of insts issued each cycle
system.cpu0.iq.issued_per_cycle::total      930083620                       # Number of insts issued each cycle
system.cpu0.iq.rate                          0.494773                       # Inst issue rate
=======
system.cpu0.iq.int_alu_accesses             622362972                       # Number of integer alu accesses
system.cpu0.iq.int_inst_queue_reads        2253254481                       # Number of integer instruction queue reads
system.cpu0.iq.int_inst_queue_wakeup_accesses    608855674                       # Number of integer instruction queue wakeup accesses
system.cpu0.iq.int_inst_queue_writes        669016658                       # Number of integer instruction queue writes
system.cpu0.iq.iqInstsAdded                 622086113                       # Number of instructions added to the IQ (excludes non-spec)
system.cpu0.iq.iqInstsIssued                623178290                       # Number of instructions issued
system.cpu0.iq.iqNonSpecInstsAdded            3058895                       # Number of non-speculative instructions added to the IQ
system.cpu0.iq.iqSquashedInstsExamined       43867282                       # Number of squashed instructions iterated over during squash; mainly for profiling
system.cpu0.iq.iqSquashedInstsIssued            81306                       # Number of squashed instructions issued
system.cpu0.iq.iqSquashedNonSpecRemoved           417                       # Number of squashed non-spec instructions that were removed
system.cpu0.iq.iqSquashedOperandsExamined     15238531                       # Number of squashed operands that are examined and possibly removed from graph
system.cpu0.iq.issued_per_cycle::samples   1005593518                       # Number of insts issued each cycle
system.cpu0.iq.issued_per_cycle::mean        0.619712                       # Number of insts issued each cycle
system.cpu0.iq.issued_per_cycle::stdev       0.844712                       # Number of insts issued each cycle
system.cpu0.iq.issued_per_cycle::underflows            0      0.00%      0.00% # Number of insts issued each cycle
system.cpu0.iq.issued_per_cycle::0          567382182     56.42%     56.42% # Number of insts issued each cycle
system.cpu0.iq.issued_per_cycle::1          298546775     29.69%     86.11% # Number of insts issued each cycle
system.cpu0.iq.issued_per_cycle::2          101662108     10.11%     96.22% # Number of insts issued each cycle
system.cpu0.iq.issued_per_cycle::3           32326434      3.21%     99.44% # Number of insts issued each cycle
system.cpu0.iq.issued_per_cycle::4            4823985      0.48%     99.92% # Number of insts issued each cycle
system.cpu0.iq.issued_per_cycle::5             314884      0.03%     99.95% # Number of insts issued each cycle
system.cpu0.iq.issued_per_cycle::6             373814      0.04%     99.98% # Number of insts issued each cycle
system.cpu0.iq.issued_per_cycle::7              91935      0.01%     99.99% # Number of insts issued each cycle
system.cpu0.iq.issued_per_cycle::8              71401      0.01%    100.00% # Number of insts issued each cycle
system.cpu0.iq.issued_per_cycle::overflows            0      0.00%    100.00% # Number of insts issued each cycle
system.cpu0.iq.issued_per_cycle::min_value            0                       # Number of insts issued each cycle
system.cpu0.iq.issued_per_cycle::max_value            8                       # Number of insts issued each cycle
system.cpu0.iq.issued_per_cycle::total     1005593518                       # Number of insts issued each cycle
system.cpu0.iq.rate                          0.565448                       # Inst issue rate
>>>>>>> 6be7a0502e78ebf80a09b838e3e9c0d652379c93
system.cpu0.iq.vec_alu_accesses                     0                       # Number of vector alu accesses
system.cpu0.iq.vec_inst_queue_reads                 0                       # Number of vector instruction queue reads
system.cpu0.iq.vec_inst_queue_wakeup_accesses            0                       # Number of vector instruction queue wakeup accesses
system.cpu0.iq.vec_inst_queue_writes                0                       # Number of vector instruction queue writes
system.cpu0.itb.accesses                            0                       # DTB accesses
system.cpu0.itb.hits                                0                       # DTB hits
system.cpu0.itb.misses                              0                       # DTB misses
system.cpu0.itb.read_accesses                       0                       # DTB read accesses
system.cpu0.itb.read_hits                           0                       # DTB read hits
system.cpu0.itb.read_misses                         0                       # DTB read misses
system.cpu0.itb.write_accesses                      0                       # DTB write accesses
system.cpu0.itb.write_hits                          0                       # DTB write hits
system.cpu0.itb.write_misses                        0                       # DTB write misses
<<<<<<< HEAD
[...]
system.cpu1.dcache.WriteReq_mshr_miss_rate::total     0.047965                       # mshr miss rate for WriteReq accesses
system.cpu1.dcache.WriteReq_avg_mshr_miss_latency::.cpu1.data 53966.187491                       # average WriteReq mshr miss latency
system.cpu1.dcache.WriteReq_avg_mshr_miss_latency::total 53966.187491                       # average WriteReq mshr miss latency
system.cpu1.dcache.LoadLockedReq_hits::.cpu1.data        47499                       # number of LoadLockedReq hits
system.cpu1.dcache.LoadLockedReq_hits::total        47499                       # number of LoadLockedReq hits
system.cpu1.dcache.LoadLockedReq_misses::.cpu1.data          909                       # number of LoadLockedReq misses
system.cpu1.dcache.LoadLockedReq_misses::total          909                       # number of LoadLockedReq misses
system.cpu1.dcache.LoadLockedReq_miss_latency::.cpu1.data     42536500                       # number of LoadLockedReq miss cycles
system.cpu1.dcache.LoadLockedReq_miss_latency::total     42536500                       # number of LoadLockedReq miss cycles
system.cpu1.dcache.LoadLockedReq_accesses::.cpu1.data        48408                       # number of LoadLockedReq accesses(hits+misses)
system.cpu1.dcache.LoadLockedReq_accesses::total        48408                       # number of LoadLockedReq accesses(hits+misses)
system.cpu1.dcache.LoadLockedReq_miss_rate::.cpu1.data     0.018778                       # miss rate for LoadLockedReq accesses
system.cpu1.dcache.LoadLockedReq_miss_rate::total     0.018778                       # miss rate for LoadLockedReq accesses
system.cpu1.dcache.LoadLockedReq_avg_miss_latency::.cpu1.data 46794.829483                       # average LoadLockedReq miss latency
system.cpu1.dcache.LoadLockedReq_avg_miss_latency::total 46794.829483                       # average LoadLockedReq miss latency
system.cpu1.dcache.LoadLockedReq_mshr_hits::.cpu1.data          218                       # number of LoadLockedReq MSHR hits
system.cpu1.dcache.LoadLockedReq_mshr_hits::total          218                       # number of LoadLockedReq MSHR hits
system.cpu1.dcache.LoadLockedReq_mshr_misses::.cpu1.data          691                       # number of LoadLockedReq MSHR misses
system.cpu1.dcache.LoadLockedReq_mshr_misses::total          691                       # number of LoadLockedReq MSHR misses
system.cpu1.dcache.LoadLockedReq_mshr_miss_latency::.cpu1.data     24612500                       # number of LoadLockedReq MSHR miss cycles
system.cpu1.dcache.LoadLockedReq_mshr_miss_latency::total     24612500                       # number of LoadLockedReq MSHR miss cycles
system.cpu1.dcache.LoadLockedReq_mshr_miss_rate::.cpu1.data     0.014275                       # mshr miss rate for LoadLockedReq accesses
system.cpu1.dcache.LoadLockedReq_mshr_miss_rate::total     0.014275                       # mshr miss rate for LoadLockedReq accesses
system.cpu1.dcache.LoadLockedReq_avg_mshr_miss_latency::.cpu1.data 35618.668596                       # average LoadLockedReq mshr miss latency
system.cpu1.dcache.LoadLockedReq_avg_mshr_miss_latency::total 35618.668596                       # average LoadLockedReq mshr miss latency
system.cpu1.dcache.StoreCondReq_hits::.cpu1.data        42850                       # number of StoreCondReq hits
system.cpu1.dcache.StoreCondReq_hits::total        42850                       # number of StoreCondReq hits
system.cpu1.dcache.StoreCondReq_misses::.cpu1.data         5211                       # number of StoreCondReq misses
system.cpu1.dcache.StoreCondReq_misses::total         5211                       # number of StoreCondReq misses
system.cpu1.dcache.StoreCondReq_miss_latency::.cpu1.data     34412000                       # number of StoreCondReq miss cycles
system.cpu1.dcache.StoreCondReq_miss_latency::total     34412000                       # number of StoreCondReq miss cycles
system.cpu1.dcache.StoreCondReq_accesses::.cpu1.data        48061                       # number of StoreCondReq accesses(hits+misses)
system.cpu1.dcache.StoreCondReq_accesses::total        48061                       # number of StoreCondReq accesses(hits+misses)
system.cpu1.dcache.StoreCondReq_miss_rate::.cpu1.data     0.108425                       # miss rate for StoreCondReq accesses
system.cpu1.dcache.StoreCondReq_miss_rate::total     0.108425                       # miss rate for StoreCondReq accesses
system.cpu1.dcache.StoreCondReq_avg_miss_latency::.cpu1.data  6603.722894                       # average StoreCondReq miss latency
system.cpu1.dcache.StoreCondReq_avg_miss_latency::total  6603.722894                       # average StoreCondReq miss latency
system.cpu1.dcache.StoreCondReq_mshr_misses::.cpu1.data         5117                       # number of StoreCondReq MSHR misses
system.cpu1.dcache.StoreCondReq_mshr_misses::total         5117                       # number of StoreCondReq MSHR misses
system.cpu1.dcache.StoreCondReq_mshr_miss_latency::.cpu1.data     29328000                       # number of StoreCondReq MSHR miss cycles
system.cpu1.dcache.StoreCondReq_mshr_miss_latency::total     29328000                       # number of StoreCondReq MSHR miss cycles
system.cpu1.dcache.StoreCondReq_mshr_miss_rate::.cpu1.data     0.106469                       # mshr miss rate for StoreCondReq accesses
system.cpu1.dcache.StoreCondReq_mshr_miss_rate::total     0.106469                       # mshr miss rate for StoreCondReq accesses
system.cpu1.dcache.StoreCondReq_avg_mshr_miss_latency::.cpu1.data  5731.483291                       # average StoreCondReq mshr miss latency
system.cpu1.dcache.StoreCondReq_avg_mshr_miss_latency::total  5731.483291                       # average StoreCondReq mshr miss latency
system.cpu1.dcache.StoreCondFailReq_miss_latency::.cpu1.data       708500                       # number of StoreCondFailReq miss cycles
system.cpu1.dcache.StoreCondFailReq_miss_latency::total       708500                       # number of StoreCondFailReq miss cycles
system.cpu1.dcache.StoreCondFailReq_avg_miss_latency::.cpu1.data          inf                       # average StoreCondFailReq miss latency
system.cpu1.dcache.StoreCondFailReq_avg_miss_latency::total          inf                       # average StoreCondFailReq miss latency
system.cpu1.dcache.StoreCondFailReq_mshr_miss_latency::.cpu1.data       675500                       # number of StoreCondFailReq MSHR miss cycles
system.cpu1.dcache.StoreCondFailReq_mshr_miss_latency::total       675500                       # number of StoreCondFailReq MSHR miss cycles
system.cpu1.dcache.StoreCondFailReq_avg_mshr_miss_latency::.cpu1.data          inf                       # average StoreCondFailReq mshr miss latency
system.cpu1.dcache.StoreCondFailReq_avg_mshr_miss_latency::total          inf                       # average StoreCondFailReq mshr miss latency
system.cpu1.dcache.SwapReq_hits::.cpu1.data         1636                       # number of SwapReq hits
system.cpu1.dcache.SwapReq_hits::total           1636                       # number of SwapReq hits
system.cpu1.dcache.SwapReq_misses::.cpu1.data         2784                       # number of SwapReq misses
system.cpu1.dcache.SwapReq_misses::total         2784                       # number of SwapReq misses
system.cpu1.dcache.SwapReq_miss_latency::.cpu1.data     63366000                       # number of SwapReq miss cycles
system.cpu1.dcache.SwapReq_miss_latency::total     63366000                       # number of SwapReq miss cycles
system.cpu1.dcache.SwapReq_accesses::.cpu1.data         4420                       # number of SwapReq accesses(hits+misses)
system.cpu1.dcache.SwapReq_accesses::total         4420                       # number of SwapReq accesses(hits+misses)
system.cpu1.dcache.SwapReq_miss_rate::.cpu1.data     0.629864                       # miss rate for SwapReq accesses
system.cpu1.dcache.SwapReq_miss_rate::total     0.629864                       # miss rate for SwapReq accesses
system.cpu1.dcache.SwapReq_avg_miss_latency::.cpu1.data 22760.775862                       # average SwapReq miss latency
system.cpu1.dcache.SwapReq_avg_miss_latency::total 22760.775862                       # average SwapReq miss latency
system.cpu1.dcache.SwapReq_mshr_misses::.cpu1.data         2784                       # number of SwapReq MSHR misses
system.cpu1.dcache.SwapReq_mshr_misses::total         2784                       # number of SwapReq MSHR misses
system.cpu1.dcache.SwapReq_mshr_miss_latency::.cpu1.data     60582000                       # number of SwapReq MSHR miss cycles
system.cpu1.dcache.SwapReq_mshr_miss_latency::total     60582000                       # number of SwapReq MSHR miss cycles
system.cpu1.dcache.SwapReq_mshr_miss_rate::.cpu1.data     0.629864                       # mshr miss rate for SwapReq accesses
system.cpu1.dcache.SwapReq_mshr_miss_rate::total     0.629864                       # mshr miss rate for SwapReq accesses
system.cpu1.dcache.SwapReq_avg_mshr_miss_latency::.cpu1.data 21760.775862                       # average SwapReq mshr miss latency
system.cpu1.dcache.SwapReq_avg_mshr_miss_latency::total 21760.775862                       # average SwapReq mshr miss latency
system.cpu1.dcache.tags.pwrStateResidencyTicks::UNDEFINED  68903306500                       # Cumulative time (in ticks) in various power states
system.cpu1.dcache.tags.tagsinuse           31.398979                       # Cycle average of tags in use
system.cpu1.dcache.tags.total_refs           18511927                       # Total number of references to valid blocks.
system.cpu1.dcache.tags.sampled_refs          1244337                       # Sample count of references to valid blocks.
system.cpu1.dcache.tags.avg_refs            14.876940                       # Average number of references to valid blocks.
system.cpu1.dcache.tags.warmup_cycle                0                       # Cycle when the warmup percentage was hit.
system.cpu1.dcache.tags.occ_blocks::.cpu1.data    31.398979                       # Average occupied blocks per requestor
system.cpu1.dcache.tags.occ_percent::.cpu1.data     0.981218                       # Average percentage of cache occupancy
system.cpu1.dcache.tags.occ_percent::total     0.981218                       # Average percentage of cache occupancy
system.cpu1.dcache.tags.occ_task_id_blocks::1024           28                       # Occupied blocks per task id
system.cpu1.dcache.tags.age_task_id_blocks_1024::1           28                       # Occupied blocks per task id
system.cpu1.dcache.tags.occ_task_id_percent::1024     0.875000                       # Percentage of cache occupancy per task id
system.cpu1.dcache.tags.tag_accesses         46536161                       # Number of tag accesses
system.cpu1.dcache.tags.data_accesses        46536161                       # Number of data accesses
system.cpu_clk_domain.clock                       500                       # Clock period in ticks
system.tol2bus.pwrStateResidencyTicks::UNDEFINED  68903306500                       # Cumulative time (in ticks) in various power states
system.tol2bus.trans_dist::ReadResp           2581108                       # Transaction distribution
system.tol2bus.trans_dist::WritebackDirty       820657                       # Transaction distribution
system.tol2bus.trans_dist::WritebackClean      2233527                       # Transaction distribution
system.tol2bus.trans_dist::CleanEvict         5908743                       # Transaction distribution
system.tol2bus.trans_dist::HardPFReq          4655430                       # Transaction distribution
system.tol2bus.trans_dist::HardPFResp               5                       # Transaction distribution
system.tol2bus.trans_dist::UpgradeReq           24361                       # Transaction distribution
system.tol2bus.trans_dist::SCUpgradeReq         10632                       # Transaction distribution
system.tol2bus.trans_dist::UpgradeResp          34993                       # Transaction distribution
system.tol2bus.trans_dist::SCUpgradeFailReq           58                       # Transaction distribution
system.tol2bus.trans_dist::UpgradeFailResp           58                       # Transaction distribution
system.tol2bus.trans_dist::ReadExReq           140544                       # Transaction distribution
system.tol2bus.trans_dist::ReadExResp          140544                       # Transaction distribution
system.tol2bus.trans_dist::ReadCleanReq        130415                       # Transaction distribution
system.tol2bus.trans_dist::ReadSharedReq      2450693                       # Transaction distribution
system.tol2bus.trans_dist::InvalidateReq          194                       # Transaction distribution
system.tol2bus.trans_dist::InvalidateResp          194                       # Transaction distribution
system.tol2bus.pkt_count_system.cpu0.icache.mem_side::system.l2.cpu_side       324485                       # Packet count per connected master and slave (bytes)
system.tol2bus.pkt_count_system.cpu0.dcache.mem_side::system.l2.cpu_side      4020038                       # Packet count per connected master and slave (bytes)
system.tol2bus.pkt_count_system.cpu1.icache.mem_side::system.l2.cpu_side        66630                       # Packet count per connected master and slave (bytes)
system.tol2bus.pkt_count_system.cpu1.dcache.mem_side::system.l2.cpu_side      3710825                       # Packet count per connected master and slave (bytes)
system.tol2bus.pkt_count::total               8121978                       # Packet count per connected master and slave (bytes)
system.tol2bus.pkt_size_system.cpu0.icache.mem_side::system.l2.cpu_side     13841920                       # Cumulative packet size per connected master and slave (bytes)
system.tol2bus.pkt_size_system.cpu0.dcache.mem_side::system.l2.cpu_side    169728320                       # Cumulative packet size per connected master and slave (bytes)
system.tol2bus.pkt_size_system.cpu1.icache.mem_side::system.l2.cpu_side      2842880                       # Cumulative packet size per connected master and slave (bytes)
system.tol2bus.pkt_size_system.cpu1.dcache.mem_side::system.l2.cpu_side    156559168                       # Cumulative packet size per connected master and slave (bytes)
system.tol2bus.pkt_size::total              342972288                       # Cumulative packet size per connected master and slave (bytes)
system.tol2bus.snoops                        11010183                       # Total snoops (count)
system.tol2bus.snoopTraffic                  26685568                       # Total snoop traffic (bytes)
system.tol2bus.snoop_fanout::samples         13695366                       # Request fanout histogram
system.tol2bus.snoop_fanout::mean            0.184146                       # Request fanout histogram
system.tol2bus.snoop_fanout::stdev           0.412079                       # Request fanout histogram
system.tol2bus.snoop_fanout::underflows             0      0.00%      0.00% # Request fanout histogram
system.tol2bus.snoop_fanout::0               11307423     82.56%     82.56% # Request fanout histogram
system.tol2bus.snoop_fanout::1                2253968     16.46%     99.02% # Request fanout histogram
system.tol2bus.snoop_fanout::2                 133948      0.98%    100.00% # Request fanout histogram
system.tol2bus.snoop_fanout::3                     27      0.00%    100.00% # Request fanout histogram
system.tol2bus.snoop_fanout::4                      0      0.00%    100.00% # Request fanout histogram
>>>>>>> 6be7a0502e78ebf80a09b838e3e9c0d652379c93
system.tol2bus.snoop_fanout::5                      0      0.00%    100.00% # Request fanout histogram
system.tol2bus.snoop_fanout::6                      0      0.00%    100.00% # Request fanout histogram
system.tol2bus.snoop_fanout::7                      0      0.00%    100.00% # Request fanout histogram
system.tol2bus.snoop_fanout::8                      0      0.00%    100.00% # Request fanout histogram
system.tol2bus.snoop_fanout::overflows              0      0.00%    100.00% # Request fanout histogram
system.tol2bus.snoop_fanout::min_value              0                       # Request fanout histogram
<<<<<<< HEAD
system.tol2bus.snoop_fanout::max_value              4                       # Request fanout histogram
system.tol2bus.snoop_fanout::total           14508041                       # Request fanout histogram
system.tol2bus.reqLayer0.occupancy         5561394067                       # Layer occupancy (ticks)
system.tol2bus.reqLayer0.utilization             12.5                       # Layer utilization (%)
system.tol2bus.respLayer5.occupancy         958377068                       # Layer occupancy (ticks)
system.tol2bus.respLayer5.utilization             2.1                       # Layer utilization (%)
system.tol2bus.respLayer4.occupancy          36787778                       # Layer occupancy (ticks)
system.tol2bus.respLayer4.utilization             0.1                       # Layer utilization (%)
system.tol2bus.respLayer7.occupancy         941809387                       # Layer occupancy (ticks)
system.tol2bus.respLayer7.utilization             2.1                       # Layer utilization (%)
system.tol2bus.respLayer6.occupancy          35968272                       # Layer occupancy (ticks)
system.tol2bus.respLayer6.utilization             0.1                       # Layer utilization (%)
system.tol2bus.respLayer1.occupancy        1074773144                       # Layer occupancy (ticks)
system.tol2bus.respLayer1.utilization             2.4                       # Layer utilization (%)
system.tol2bus.respLayer0.occupancy         165698445                       # Layer occupancy (ticks)
system.tol2bus.respLayer0.utilization             0.4                       # Layer utilization (%)
system.tol2bus.respLayer3.occupancy         972291916                       # Layer occupancy (ticks)
system.tol2bus.respLayer3.utilization             2.2                       # Layer utilization (%)
system.tol2bus.respLayer2.occupancy          36788629                       # Layer occupancy (ticks)
system.tol2bus.respLayer2.utilization             0.1                       # Layer utilization (%)
system.tol2bus.snoopLayer0.occupancy             9003                       # Layer occupancy (ticks)
=======
system.tol2bus.snoop_fanout::max_value              3                       # Request fanout histogram
system.tol2bus.snoop_fanout::total           13695366                       # Request fanout histogram
system.tol2bus.reqLayer0.occupancy         5399208214                       # Layer occupancy (ticks)
system.tol2bus.reqLayer0.utilization              7.8                       # Layer utilization (%)
system.tol2bus.respLayer1.occupancy        2032981389                       # Layer occupancy (ticks)
system.tol2bus.respLayer1.utilization             3.0                       # Layer utilization (%)
system.tol2bus.respLayer0.occupancy         162408298                       # Layer occupancy (ticks)
system.tol2bus.respLayer0.utilization             0.2                       # Layer utilization (%)
system.tol2bus.respLayer3.occupancy        1878280135                       # Layer occupancy (ticks)
system.tol2bus.respLayer3.utilization             2.7                       # Layer utilization (%)
system.tol2bus.respLayer2.occupancy          33573981                       # Layer occupancy (ticks)
system.tol2bus.respLayer2.utilization             0.0                       # Layer utilization (%)
system.tol2bus.snoopLayer0.occupancy             7500                       # Layer occupancy (ticks)
>>>>>>> 6be7a0502e78ebf80a09b838e3e9c0d652379c93
system.tol2bus.snoopLayer0.utilization            0.0                       # Layer utilization (%)

---------- End Simulation Statistics   ----------
