Redirecting stdout to /vol1/msoyturk/gem5/results/sssp/epinions.el/prefetch_SignaturePathPrefetcher_SecondChanceRP/output.txt
Redirecting stderr to /vol1/msoyturk/gem5/results/sssp/epinions.el/prefetch_SignaturePathPrefetcher_SecondChanceRP/error.txt
gem5 Simulator System.  http://gem5.org
gem5 is copyrighted software; use the --copyright option for details.

gem5 compiled Apr 26 2020 13:32:47
gem5 started Apr 28 2020 04:41:35
gem5 executing on draco, pid 29640
command line: /vol1/msoyturk/gem5/build/RISCV/gem5.fast -re --outdir=/vol1/msoyturk/gem5/results/sssp/epinions.el/prefetch_SignaturePathPrefetcher_SecondChanceRP --stdout-file=output.txt --stderr-file=error.txt /vol1/msoyturk/gem5/configs/example/my_se.py -c /vol1/msoyturk/gem5/gapbs/sssp -o '-f /vol1/msoyturk/gem5/gapbs/test/graphs/epinions.el' --caches --l1d_size=2kB --l1i_size=2kB --cpu-type=DerivO3CPU -n 4 --mem-size=512MB --l2cache --l2_size=4kB --l2-hwp-type=SignaturePathPrefetcher --l2-replacement-policy=SecondChanceRP --l1i_mshrs=4 --l1d_mshrs=4 --l2_mshrs=20 --l1i_write_buffers=8 --l1d_write_buffers=8 --l2_write_buffers=8

info: Standard input is not a terminal, disabling listeners.
Warning: l2-hwp-type is set ( SignaturePathPrefetcher ), but the current l2 has a default Hardware Prefetcher of type <class 'm5.params.NullSimObject'> , using the specified by the flag option.
Global frequency set at 1000000000000 ticks per second
**** REAL SIMULATION ****
Read Time:           0.50697
Build Time:          0.09971
Graph has 75888 nodes and 508837 directed edges for degree: 6
    0          1     0.02753
    8          1     0.04219
   10          1     0.10313
   12          1     0.12198
   14          1     0.04344
   16          3     0.05841
   17          3     0.04325
   18          4     0.20281
   19          5     0.20414
   20          4     0.42176
   21         10     0.37521
   22         13     0.38532
   23         19     0.33613
   24         26     0.28838
   25         31     0.53622
   26         49     0.41631
   27         75     0.43684
   28         64     0.51430
   29         81     0.33840
   30        111     0.57780
   31        105     0.43844
   32        131     0.48478
   33        154     0.53969
   34        181     0.65985
   35        188     0.86062
   36        192     0.61700
   37        232     0.55609
   38        259     0.53761
   39        263     0.46949
   40        260     0.44400
   41        295     0.54515
   42        277     0.30958
   43        327     0.54077
   44        292     0.44048
   45        295     0.36312
   46        324     0.36162
   47        350     0.38808
   48        324     0.31985
   49        323     0.24771
   50        349     0.30604
   51        346     0.30606
   52        323     0.33910
   53        335     0.23545
   54        368     0.36429
   55        359     0.26468
   56        371     0.32032
   57        348     0.18450
   58        360     0.20653
   59        361     0.23111
   60        390     0.21428
   61        336     0.17127
   62        352     0.16953
   63        337     0.16750
   64        346     0.17001
   65        385     0.13763
   66        342     0.14376
   67        327     0.12394
   68        306     0.10412
   69        386     0.17649
   70        307     0.14143
   71        334     0.12869
   72        376     0.12720
   73        369     0.11156
   74        345     0.10080
   75        338     0.10461
   76        350     0.11069
   77        312     0.08522
   78        342     0.10117
   79        320     0.09738
   80        355     0.10615
   81        300     0.11271
   82        334     0.09555
   83        330     0.09212
   84        352     0.10376
   85        309     0.07817
   86        314     0.05984
   87        317     0.07468
   88        315     0.08550
   89        305     0.08446
   90        310     0.06890
   91        289     0.05360
   92        302     0.07962
   93        298     0.08635
   94        319     0.10014
   95        316     0.07575
   96        302     0.07323
   97        327     0.08029
   98        283     0.08077
   99        280     0.07665
  100        310     0.07315
  101        280     0.06896
  102        295     0.06305
  103        285     0.06914
  104        305     0.07732
  105        282     0.07957
  106        290     0.07159
  107        306     0.07094
  108        302     0.08576
  109        284     0.06241
  110        307     0.07428
  111        294     0.05929
  112        286     0.05162
  113        309     0.05944
  114        258     0.04930
  115        296     0.06524
  116        259     0.06725
  117        276     0.06351
  118        279     0.05657
  119        313     0.07917
  120        278     0.05430
  121        259     0.05692
  122        269     0.06329
  123        295     0.06116
  124        281     0.05868
  125        282     0.06103
  126        293     0.06238
  127        262     0.04618
  128        268     0.04845
  129        256     0.05376
  130        286     0.05308
  131        278     0.05427
  132        277     0.04934
  133        261     0.08963
  134        263     0.04177
  135        255     0.04938
  136        222     0.03978
  137        228     0.03915
  138        229     0.04681
  139        260     0.04379
  140        263     0.05276
  141        265     0.04241
  142        248     0.06781
  143        246     0.04165
  144        264     0.05672
  145        274     0.04746
  146        247     0.04920
  147        265     0.05021
  148        249     0.05430
  149        275     0.05065
  150        255     0.05806
  151        275     0.04601
  152        259     0.04947
  153        244     0.04701
  154        239     0.04457
  155        245     0.03916
  156        229     0.04149
  157        237     0.04212
  158        258     0.04215
  159        219     0.03410
  160        259     0.04005
  161        224     0.03445
  162        232     0.03064
  163        270     0.04784
  164        259     0.04645
  165        237     0.03713
  166        274     0.05640
  167        240     0.04426
  168        248     0.04537
  169        232     0.03530
  170        215     0.03137
  171        236     0.05021
  172        261     0.03890
  173        213     0.03064
  174        244     0.04296
  175        254     0.05075
  176        193     0.03359
  177        253     0.03200
  178        233     0.04115
  179        214     0.04069
  180        259     0.05395
  181        255     0.03697
  182        244     0.04146
  183        223     0.05163
  184        239     0.05270
  185        214     0.03515
  186        228     0.02768
  187        239     0.03984
  188        227     0.03431
  189        226     0.03362
  190        224     0.03374
  191        216     0.03090
  192        231     0.03542
  193        231     0.03784
  194        220     0.03899
  195        204     0.03356
  196        199     0.05103
  197        230     0.03311
  198        213     0.02741
  199        212     0.03639
  200        217     0.02504
  201        207     0.03340
  202        230     0.03207
  203        223     0.03058
  204        201     0.03539
  205        236     0.03170
  206        216     0.04015
  207        229     0.02772
  208        224     0.02889
  209        222     0.02880
  210        215     0.02944
  211        204     0.02953
  212        212     0.03083
  213        227     0.04178
  214        173     0.02322
  215        197     0.04316
  216        205     0.04643
  217        196     0.03247
  218        247     0.03588
  219        190     0.03282
  220        207     0.03045
  221        204     0.02934
  222        206     0.02927
  223        201     0.04192
  224        193     0.03683
  225        212     0.03259
  226        212     0.03585
  227        231     0.03025
  228        202     0.03334
  229        205     0.04591
  230        188     0.03102
  231        189     0.03266
  232        196     0.03094
  233        204     0.03005
  234        180     0.02984
  235        215     0.03327
  236        187     0.02767
  237        222     0.03654
  238        208     0.02310
  239        207     0.02831
  240        199     0.03587
  241        186     0.03092
  242        187     0.03323
  243        184     0.03368
  244        189     0.03095
  245        201     0.03123
  246        200     0.03029
  247        220     0.03174
  248        195     0.03124
  249        188     0.02783
  250        179     0.03119
  251        197     0.02583
  252        214     0.02855
  253        194     0.02584
  254        200     0.03512
  255        199     0.02725
  256        197     0.03119
  257        192     0.02473
  258        209     0.02729
  259        211     0.03248
  260        209     0.03134
  261        169     0.02815
  262        206     0.03113
  263        191     0.03302
  264        189     0.02274
  265        194     0.03142
  266        190     0.02723
  267        213     0.03084
  268        198     0.03768
  269        172     0.02944
  270        202     0.03370
  271        192     0.03091
  272        185     0.02652
  273        193     0.03408
  274        182     0.03352
  275        190     0.02957
  276        179     0.02322
  277        180     0.02518
  278        170     0.02646
  279        178     0.03488
  280        181     0.02764
  281        175     0.02886
  282        153     0.03011
  283        153     0.02886
  284        156     0.02231
  285        171     0.02943
  286        164     0.02678
  287        161     0.02851
  288        176     0.03231
  289        130     0.02590
  290        154     0.02862
  291        119     0.02130
  292        138     0.03097
  293        128     0.02372
  294        116     0.01812
  295        103     0.01647
  296        107     0.02764
  297         98     0.02214
  298         92     0.02065
  299        111     0.02349
  300         78     0.02116
  301         92     0.02332
  302         90     0.02402
  303         96     0.02410
  304         75     0.01485
  305         93     0.02257
  306         74     0.01953
  307         84     0.01302
  308         80     0.01680
  309         80     0.01842
  310         66     0.02210
  311         70     0.01870
  312         70     0.03199
  313         62     0.02611
  314         65     0.02296
  315         62     0.02099
  316         59     0.02158
  317         51     0.01967
  318         54     0.02348
  319         56     0.01360
  320         50     0.01588
  321         55     0.01327
  322         49     0.01774
  323         59     0.02359
  324         46     0.01226
  325         58     0.02250
  326         45     0.01860
  327         54     0.02125
  328         40     0.01754
  329         44     0.02098
  330         43     0.01668
  331         50     0.01625
  332         40     0.01783
  333         42     0.01426
  334         41     0.01324
  335         35     0.01588
  336         41     0.01886
  337         44     0.01627
  338         34     0.01837
  339         41     0.01961
  340         41     0.01308
  341         46     0.01533
  342         43     0.01165
  343         34     0.01309
  344         55     0.01572
  345         48     0.01922
  346         39     0.01534
  347         32     0.01574
  348         28     0.01530
  349         34     0.01321
  350         39     0.01709
  351         31     0.01249
  352         31     0.01297
  353         31     0.01632
  354         31     0.01416
  355         39     0.01996
  356         32     0.01531
  357         27     0.01052
  358         27     0.01871
  359         41     0.01919
  360         34     0.01483
  361         28     0.00971
  362         25     0.01936
  363         29     0.00979
  364         21     0.00996
  365         32     0.01176
  366         26     0.01004
  367         24     0.01653
  368         28     0.01236
  369         21     0.01104
  370         33     0.02142
  371         31     0.01685
  372         16     0.01032
  373         22     0.01200
  374         21     0.01040
  375         22     0.00905
  376         19     0.01518
  377         34     0.01593
  378         19     0.01009
  379         22     0.01378
  380         20     0.01426
  381         28     0.01283
  382         26     0.00934
  383         21     0.01045
  384         36     0.01769
  385         20     0.01261
  386         31     0.01362
  387         26     0.01352
  388         25     0.02358
  389         18     0.01204
  390         17     0.01086
  391         15     0.00785
  392         20     0.01482
  393         16     0.01113
  394         20     0.01140
  395         24     0.01038
  396         17     0.01556
  397         23     0.01003
  398         23     0.01253
  399         22     0.01376
  400         20     0.01499
  401         23     0.01234
  402         23     0.01133
  403         19     0.01481
  404         13     0.00759
  405         24     0.01154
  406         13     0.00770
  407         13     0.00915
  408         15     0.01003
  409         12     0.00767
  410         14     0.01055
  411         13     0.01149
  412         22     0.01223
  413         14     0.01052
  414         17     0.00971
  415         15     0.01100
  416         18     0.01058
  417         15     0.00772
  418         12     0.01441
  419         21     0.01243
  420         22     0.00834
  421          9     0.00693
  422         15     0.01227
  423         15     0.01175
  424         16     0.01204
  425         17     0.00994
  426         23     0.01375
  427         15     0.00824
  428         23     0.01211
  429         10     0.00804
  430         26     0.00949
  431          8     0.00634
  432         12     0.01196
  433         15     0.00813
  434         19     0.01423
  435         13     0.01029
  436         13     0.00995
  437          8     0.00667
  438         17     0.01030
  439          6     0.01008
  440         10     0.01189
  441         18     0.00823
  442         15     0.01012
  443         10     0.00694
  444         19     0.01142
  445         15     0.00827
  446         10     0.00704
  447         15     0.01111
  448         12     0.01284
  449         14     0.01169
  450         16     0.01031
  451         12     0.00952
  452         12     0.00779
  453          8     0.00661
  454         10     0.00704
  455          9     0.00694
  456          9     0.00945
  457         13     0.00757
  458          8     0.00672
  459          6     0.00933
  460         15     0.00785
  461         17     0.01278
  462          9     0.01407
  463         11     0.00750
  464          8     0.00624
  465         14     0.00816
  466         10     0.00695
  467          5     0.00609
  468         11     0.00678
  469         13     0.01109
  470         14     0.01524
  471          8     0.00883
  472         11     0.00693
  473          6     0.00573
  474          9     0.01065
  475         10     0.01232
  476          9     0.00735
  477          6     0.00846
  478         11     0.00703
  479          9     0.01003
  480          6     0.00903
  481          3     0.00542
  482         12     0.01083
  483         10     0.01276
  484          5     0.00611
  485          7     0.00620
  486          4     0.00982
  487          2     0.00920
  488          5     0.01298
  489          7     0.00681
  490         10     0.00713
  491          4     0.00622
  492          7     0.01596
  493          8     0.00672
  494          8     0.00609
  495          3     0.00962
  496          9     0.01112
  497          6     0.00896
  498         11     0.00743
  499          2     0.00509
  500          3     0.00583
  501          4     0.00648
  502          7     0.01034
  503          8     0.00681
  504          2     0.00919
  505          6     0.00625
  506          9     0.00783
  507         10     0.00651
  508         10     0.00731
  509          6     0.00664
  510          5     0.00658
  511          5     0.00586
  512          6     0.00637
  513          4     0.00585
  514          3     0.00540
  515          9     0.00648
  516          2     0.00791
  517          6     0.00572
  518          5     0.00857
  519          1     0.00494
  520          2     0.00579
  521          7     0.00934
  522          6     0.00624
  523          6     0.00643
  524          2     0.00475
  525          4     0.00596
  526          3     0.00870
  527          2     0.00521
  528          5     0.00922
  529          3     0.00526
  530          4     0.01054
  531          3     0.00572
  532          6     0.00576
  533          6     0.00554
  534          2     0.00515
  535          4     0.00577
  536          3     0.00589
  537          3     0.00840
  538          3     0.00566
  539          2     0.00799
  540          7     0.00699
  541          3     0.00544
  542          5     0.00640
  543          4     0.01204
  544          4     0.00655
  546          4     0.00806
  547          3     0.00660
  548          7     0.00870
  549          3     0.00555
  550          3     0.00553
  551          3     0.00553
  552          3     0.00903
  553          2     0.00864
  555          2     0.00553
  556          1     0.00500
  557          1     0.00539
  558          6     0.00620
  559          3     0.00545
  560          2     0.00524
  561          4     0.00574
  562          2     0.00537
  563          4     0.00869
  564          4     0.00579
  565          1     0.00532
  566          2     0.00504
  567          1     0.00525
  568          1     0.00499
  569          2     0.00518
  570          4     0.00584
  571          1     0.00485
  572          1     0.00809
  573          1     0.00896
  574          2     0.00521
  576          2     0.00618
  577          2     0.00560
  578          3     0.00539
  579          1     0.00498
  580          4     0.00549
  581          1     0.00492
  582          5     0.00608
  584          3     0.00824
  585          2     0.00523
  586          2     0.00814
  587          1     0.00505
  588          1     0.00515
  589          2     0.00500
  590          2     0.00512
  591          2     0.00521
  592          2     0.00561
  593          3     0.00561
  595          1     0.00505
  596          4     0.00581
  599          1     0.00488
  600          2     0.00507
  601          2     0.00524
  602          3     0.00495
  604          2     0.00515
  605          3     0.00803
  606          1     0.00533
  607          2     0.00524
  608          1     0.00492
  610          1     0.00533
  611          4     0.00813
  612          2     0.00534
  613          1     0.00497
  614          2     0.00549
  616          1     0.00658
  619          1     0.00589
  620          2     0.01283
  622          4     0.01121
  623          3     0.00588
  624          2     0.00547
  625          4     0.00932
  627          1     0.00647
  628          1     0.00593
  631          1     0.00613
  632          1     0.00567
  634          1     0.00570
  635          1     0.00578
  636          3     0.02731
  637          3     0.00626
  639          3     0.00656
  640          2     0.00590
  641          1     0.00527
  643          1     0.00551
  644          1     0.00855
  646          1     0.00561
  647          1     0.00586
  648          1     0.00618
  649          2     0.00907
  650          3     0.00581
  652          2     0.00634
  653          2     0.00573
  654          1     0.00512
  655          2     0.00998
  656          1     0.00780
  657          1     0.00558
  658          1     0.00524
  659          1     0.00518
  660          1     0.00592
  661          2     0.00577
  666          1     0.00550
  667          1     0.00587
  668          1     0.00551
  672          1     0.00505
  676          1     0.00539
  679          1     0.00491
  682          1     0.00529
  684          2     0.00494
  685          1     0.00510
  686          1     0.00547
  690          1     0.00498
  691          1     0.00516
  693          1     0.00481
  695          1     0.00517
  696          1     0.00802
  697          1     0.00477
  698          1     0.00539
  700          1     0.00582
  702          1     0.00560
  705          1     0.00518
  706          1     0.00528
  707          2     0.00763
  708          1     0.00541
  715          2     0.00531
  718          1     0.00516
  721          1     0.00536
  724          1     0.00576
  731          1     0.00527
  735          1     0.00537
  737          2     0.00547
  738          1     0.00564
  739          1     0.00607
  762          1     0.00555
  766          1     0.00504
  777          1     0.00813
  780          1     0.00958
  782          1     0.00539
  786          1     0.00535
  788          1     0.00522
  790          1     0.00751
  791          1     0.00562
  796          1     0.00520
  797          1     0.00585
  806          1     0.00542
  821          1     0.00511
  825          1     0.00596
  837          2     0.00581
  843          1     0.00459
  844          1     0.00533
  851          1     0.00517
  872          1     0.00559
  873          1     0.00496
  880          1     0.01214
  883          1     0.00517
  889          1     0.00547
  890          1     0.00547
  902          1     0.00593
  931          1     0.00658
 1072          1     0.00513
took 689 iterations
Trial Time:          0.04443
    0          1     0.02097
  155          1     0.03233
  182          1     0.01202
  186          1     0.01011
  193          1     0.01512
  206          1     0.02487
  212          1     0.06101
  213          1     0.00933
  219          1     0.00513
  222          1     0.00487
  223          1     0.00559
  229          1     0.02244
  231          1     0.04032
  232          2     0.11332
  233          4     0.08245
  234          5     0.10865
  235          5     0.09300
  236          5     0.14933
  237          7     0.44606
  238          3     0.12094
  239         12     0.40424
  240          8     0.16614
  241         17     0.44999
  242         20     0.25570
  243         19     0.24957
  244         34     0.32785
  245         45     0.50088
  246         61     0.49242
  247         68     0.57950
  248         97     0.42968
  249        112     0.52756
  250        128     0.95376
  251        151     0.79945
  252        171     0.43329
  253        169     0.38203
  254        218     0.69404
  255        201     0.61529
  256        235     0.51182
  257        243     0.41426
  258        245     0.43262
  259        298     0.42110
  260        283     0.41770
  261        287     0.46712
  262        311     0.43412
  263        309     0.34403
  264        301     0.36448
  265        329     0.43892
  266        319     0.30083
  267        329     0.32019
  268        346     0.33245
  269        361     0.33141
  270        336     0.25245
  271        371     0.41614
  272        341     0.25096
  273        334     0.24142
  274        366     0.19316
  275        356     0.25209
  276        374     0.23332
  277        372     0.21534
  278        340     0.19197
  279        376     0.24678
  280        406     0.20084
  281        345     0.15323
  282        369     0.14281
  283        388     0.19623
  284        325     0.13625
  285        349     0.16763
  286        339     0.10168
  287        349     0.11852
  288        335     0.13334
  289        320     0.10992
  290        336     0.11878
  291        339     0.12056
  292        340     0.10177
  293        361     0.08724
  294        357     0.11976
  295        331     0.10280
  296        358     0.09075
  297        354     0.09143
  298        333     0.11916
  299        334     0.11042
  300        299     0.08603
  301        324     0.10627
  302        326     0.08242
  303        296     0.07791
  304        331     0.08588
  305        294     0.06529
  306        308     0.08070
  307        334     0.08083
  308        304     0.09776
  309        316     0.08126
  310        298     0.07279
  311        290     0.06952
  312        298     0.08316
  313        321     0.07099
  314        269     0.05932
  315        319     0.08777
  316        293     0.08211
  317        305     0.07212
  318        304     0.09293
  319        290     0.07401
  320        263     0.07099
  321        281     0.08128
  322        313     0.06942
  323        288     0.06358
  324        297     0.07122
  325        319     0.07793
  326        289     0.06295
  327        316     0.07107
  328        306     0.08854
  329        262     0.05427
  330        249     0.05982
  331        285     0.05316
  332        276     0.04489
  333        292     0.05369
  334        274     0.06674
  335        312     0.07368
  336        280     0.06178
  337        287     0.05850
  338        260     0.04995
  339        234     0.05174
  340        288     0.05043
  341        299     0.05192
  342        270     0.05868
  343        269     0.06190
  344        270     0.05447
  345        285     0.05377
  346        254     0.04763
  347        290     0.05530
  348        258     0.05859
  349        257     0.07840
  350        279     0.04606
  351        272     0.04487
  352        262     0.04610
  353        276     0.05894
  354        256     0.04248
  355        264     0.04541
  356        251     0.04908
  357        247     0.05512
  358        266     0.05956
  359        262     0.04621
  360        252     0.04934
  361        254     0.04881
  362        253     0.03156
  363        246     0.04729
  364        211     0.04906
  365        281     0.05700
  366        249     0.06003
  367        243     0.05815
  368        259     0.05323
  369        270     0.05628
  370        286     0.05530
  371        235     0.03485
  372        274     0.03776
  373        254     0.05453
  374        260     0.04212
  375        235     0.04514
  376        242     0.03640
  377        228     0.03836
  378        251     0.04298
  379        228     0.04308
  380        212     0.03189
  381        266     0.03672
  382        248     0.04403
  383        237     0.03709
  384        254     0.05360
  385        232     0.03990
  386        262     0.03819
  387        238     0.04321
  388        235     0.04849
  389        245     0.03775
  390        235     0.03888
  391        242     0.03754
  392        235     0.03700
  393        248     0.04408
  394        236     0.03574
  395        293     0.03758
  396        228     0.05972
  397        239     0.03998
  398        226     0.03510
  399        244     0.03415
  400        235     0.03524
  401        248     0.04930
  402        243     0.03573
  403        222     0.04496
  404        218     0.03075
  405        230     0.03319
  406        230     0.03840
  407        225     0.03086
  408        241     0.04008
  409        216     0.03074
  410        212     0.03599
  411        224     0.04020
  412        220     0.02512
  413        227     0.02590
  414        225     0.03757
  415        200     0.04202
  416        229     0.03948
  417        209     0.03391
  418        210     0.02753
  419        221     0.03662
  420        216     0.03594
  421        218     0.03558
  422        241     0.04080
  423        219     0.02923
  424        230     0.02986
  425        212     0.03037
  426        230     0.03754
  427        203     0.03357
  428        218     0.03983
  429        228     0.02847
  430        194     0.03445
  431        199     0.03265
  432        238     0.04101
  433        224     0.02777
  434        189     0.03614
  435        213     0.03206
  436        203     0.02591
  437        210     0.03070
  438        195     0.04116
  439        227     0.02915
  440        210     0.03317
  441        216     0.04234
  442        190     0.03653
  443        209     0.03245
  444        219     0.03592
  445        199     0.03838
  446        196     0.02870
  447        197     0.03039
  448        229     0.03400
  449        175     0.02355
  450        197     0.03649
  451        214     0.03390
  452        193     0.03149
  453        189     0.03062
  454        200     0.02567
  455        189     0.02948
  456        207     0.02864
  457        194     0.02815
  458        215     0.03098
  459        199     0.03169
  460        216     0.02888
  461        202     0.03510
  462        186     0.02928
  463        185     0.03223
  464        200     0.02216
  465        171     0.03610
  466        196     0.02957
  467        187     0.03188
  468        207     0.02950
  469        205     0.03482
  470        186     0.02596
  471        210     0.03191
  472        195     0.02802
  473        212     0.02492
  474        214     0.03689
  475        182     0.02740
  476        192     0.02773
  477        206     0.02921
  478        170     0.02416
  479        179     0.03263
  480        195     0.02842
  481        219     0.03789
  482        167     0.02023
  483        203     0.04312
  484        181     0.03071
  485        196     0.02659
  486        195     0.03024
  487        205     0.02650
  488        198     0.02653
  489        175     0.03452
  490        198     0.03467
  491        190     0.03180
  492        206     0.03105
  493        172     0.02818
  494        165     0.02486
  495        180     0.02680
  496        180     0.02398
  497        166     0.04118
  498        169     0.03042
  499        187     0.03290
  500        199     0.02879
  501        183     0.03139
  502        153     0.02943
  503        178     0.03138
  504        142     0.02410
  505        149     0.03127
  506        146     0.02830
  507        138     0.02658
  508        127     0.02352
  509        146     0.02794
  510        132     0.04876
  511        132     0.02528
  512        122     0.02240
  513        113     0.02041
  514        116     0.02006
  515        112     0.01905
  516        113     0.01985
  517        103     0.02632
  518         97     0.01951
  519         90     0.02311
  520         87     0.02714
  521         87     0.02233
  522         89     0.01529
  523         92     0.02231
  524         88     0.01493
  525         70     0.01914
  526         76     0.02420
  527         64     0.02080
  528         74     0.01834
  529         72     0.01767
  530         81     0.01907
  531         66     0.01877
  532         64     0.02623
  533         61     0.02414
  534         63     0.01871
  535         58     0.02374
  536         60     0.01731
  537         59     0.01671
  538         44     0.01829
  539         57     0.01440
  540         43     0.01891
  541         53     0.03170
  542         42     0.01135
  543         48     0.02455
  544         52     0.02265
  545         44     0.01850
  546         48     0.01297
  547         33     0.01229
  548         59     0.01589
  549         41     0.02143
  550         46     0.01209
  551         41     0.02118
  552         36     0.01277
  553         41     0.01830
  554         44     0.01814
  555         47     0.01480
  556         48     0.01624
  557         32     0.01411
  558         38     0.01554
  559         47     0.01744
  560         38     0.01904
  561         34     0.01642
  562         46     0.01901
  563         45     0.01178
  564         39     0.02494
  565         38     0.01325
  566         32     0.01542
  567         37     0.01514
  568         32     0.01686
  569         28     0.00987
  570         41     0.01429
  571         25     0.01017
  572         27     0.01761
  573         30     0.01040
  574         29     0.01597
  575         28     0.01041
  576         35     0.02459
  577         25     0.01371
  578         36     0.01597
  579         30     0.01389
  580         30     0.00971
  581         36     0.02330
  582         33     0.01511
  583         43     0.01758
  584         31     0.01301
  585         27     0.01192
  586         22     0.00853
  587         21     0.01206
  588         23     0.01301
  589         23     0.01136
  590         24     0.01067
  591         22     0.01115
  592         29     0.01391
  593         14     0.00858
  594         33     0.01305
  595         21     0.01108
  596         19     0.00845
  597         20     0.01513
  598         19     0.00889
  599         33     0.01344
  600         22     0.01150
  601         26     0.01958
  602         23     0.01778
  603         20     0.01097
  604         20     0.01297
  605         31     0.01307
  606         11     0.01366
  607         29     0.01464
  608         24     0.00918
  609         23     0.01972
  610         20     0.00860
  611         14     0.01161
  612         31     0.01295
  613         17     0.01307
  614         22     0.00897
  615         18     0.01378
  616         20     0.01170
  617         21     0.01142
  618         18     0.01031
  619         19     0.01854
  620         17     0.01382
  621         23     0.01484
  622         19     0.01116
  623         16     0.00800
  624         15     0.01335
  625         19     0.01599
  626         20     0.00840
  627         18     0.01148
  628         16     0.01048
  629         19     0.01427
  630         11     0.01135
  631         13     0.00790
  632         12     0.00858
  633         19     0.01226
  634         17     0.01098
  635         14     0.00772
  636         15     0.00974
  637         21     0.01138
  638         19     0.01587
  639          9     0.00682
  640         16     0.00873
  641         13     0.00764
  642         22     0.00853
  643         18     0.01152
  644         12     0.00740
  645         17     0.00914
  646         23     0.01414
  647         12     0.00939
  648         15     0.00793
  649         16     0.00752
  650         14     0.00752
  651         15     0.00959
  652         15     0.00987
  653         12     0.01228
  654         16     0.00841
  655         14     0.01215
  656         16     0.01332
  657          9     0.00851
  658         14     0.00724
  659          7     0.00630
  660          6     0.00572
  661          9     0.01048
  662         15     0.01256
  663         15     0.01015
  664         19     0.00875
  665         15     0.00839
  666         15     0.00739
  667          5     0.00959
  668         12     0.00829
  669          9     0.01069
  670         11     0.00888
  671         12     0.00958
  672         14     0.01049
  673         15     0.01026
  674         13     0.00988
  675         19     0.01391
  676          6     0.00655
  677          9     0.00658
  678         12     0.00868
  679         13     0.01151
  680         12     0.00874
  681          6     0.00551
  682          4     0.00586
  683         10     0.01494
  684          8     0.00664
  685         11     0.00668
  686         10     0.00761
  687         10     0.00721
  688         11     0.00702
  689         22     0.01293
  690          9     0.00707
  691         12     0.01140
  692          6     0.00912
  693          5     0.00538
  694         17     0.01533
  695          6     0.00993
  696          5     0.00628
  697          8     0.00655
  698          3     0.00564
  699         12     0.01209
  700          3     0.00542
  701          7     0.00667
  702          6     0.00715
  703          9     0.01114
  704          7     0.00917
  705          6     0.00624
  706          7     0.01167
  707          5     0.00608
  708          6     0.00907
  709          7     0.01185
  710          8     0.00791
  711          8     0.00671
  712          7     0.00666
  713          4     0.01387
  714          6     0.00665
  715          6     0.00629
  716          4     0.01090
  717          7     0.00976
  718          4     0.00692
  719         13     0.00855
  720          7     0.00666
  721          8     0.00658
  722          8     0.00943
  723          6     0.00605
  724          8     0.00645
  725          3     0.00954
  726          8     0.00646
  727          3     0.00628
  728          5     0.00614
  729          3     0.00590
  730          3     0.00767
  731          6     0.00607
  732          7     0.00641
  733          5     0.00553
  734          7     0.00874
  735          7     0.00652
  736          7     0.00790
  737          2     0.00501
  738          5     0.00560
  739          4     0.00659
  740          3     0.00556
  741          5     0.00566
  742          3     0.00702
  743          2     0.00606
  744          4     0.00608
  745          2     0.00531
  746          3     0.00528
  747          8     0.00899
  748          2     0.00508
  749          5     0.00619
  750          4     0.00534
  751          3     0.00869
  752          2     0.00535
  753          4     0.00562
  754          1     0.00530
  755          4     0.00551
  756          3     0.00868
  757          4     0.00635
  759          6     0.00835
  760          1     0.00537
  761          6     0.00903
  762          4     0.00613
  763          3     0.00558
  764          2     0.00590
  765          4     0.00982
  766          4     0.00611
  767          5     0.03258
  768          2     0.00526
  769          5     0.00705
  770          2     0.00514
  771          6     0.01220
  772          3     0.00579
  773          3     0.00507
  774          2     0.00551
  775          2     0.00532
  776          4     0.00686
  777          4     0.00654
  779          1     0.00538
  780          4     0.00550
  781          2     0.00946
  782          3     0.00534
  783          2     0.00521
  785          2     0.00704
  786          1     0.00533
  787          2     0.00487
  788          3     0.00541
  790          1     0.00521
  791          2     0.00625
  792          3     0.00872
  794          3     0.01182
  795          3     0.00586
  796          2     0.00576
  797          2     0.00837
  798          1     0.00544
  799          3     0.00533
  800          4     0.01053
  801          3     0.00509
  802          1     0.00513
  803          2     0.00564
  804          1     0.00535
  805          3     0.00516
  806          1     0.00500
  807          3     0.00537
  809          3     0.00543
  810          1     0.00518
  811          3     0.00550
  812          2     0.00514
  813          4     0.00509
  814          2     0.00547
  815          1     0.00963
  816          1     0.00532
  819          2     0.00560
  821          1     0.00551
  822          2     0.00524
  823          3     0.00594
  824          2     0.00510
  826          5     0.01283
  827          1     0.00508
  828          2     0.00595
  829          2     0.00545
  830          2     0.00517
  831          2     0.00847
  833          1     0.00511
  835          1     0.00515
  836          1     0.00498
  839          1     0.00512
  841          3     0.00584
  842          1     0.00492
  843          3     0.00790
  844          2     0.00587
  845          3     0.00798
  846          2     0.00957
  847          1     0.00588
  848          1     0.00525
  849          1     0.00660
  850          5     0.01258
  852          1     0.00946
  853          2     0.00645
  856          1     0.00576
  857          1     0.00576
  858          2     0.00570
  861          1     0.00559
  862          1     0.00560
  864          4     0.00585
  865          1     0.00560
  866          3     0.00694
  870          2     0.00810
  871          3     0.00565
  872          2     0.00550
  873          1     0.00539
  876          2     0.00929
  877          3     0.00590
  879          1     0.00502
  882          3     0.00641
  885          1     0.00619
  887          2     0.00547
  894          1     0.00578
  901          1     0.00566
  902          1     0.00911
  903          2     0.00556
  907          2     0.00574
  909          1     0.00527
  911          1     0.00554
  912          1     0.00513
  913          1     0.00560
  915          1     0.00544
  916          1     0.00495
  917          1     0.00556
  918          1     0.00538
  922          1     0.00528
  924          1     0.00535
  925          1     0.00795
  927          2     0.00549
  935          1     0.00513
  936          1     0.00498
  938          1     0.00541
  942          2     0.00574
  951          1     0.00518
  952          1     0.00513
  953          1     0.00520
  955          1     0.00541
  956          1     0.00536
  957          1     0.00551
  972          1     0.00543
  980          1     0.00549
  995          1     0.00972
  996          1     0.00691
 1005          1     0.00961
 1006          1     0.00561
 1009          1     0.00545
 1011          1     0.00550
 1012          1     0.00537
 1015          1     0.00484
 1018          1     0.00579
 1019          1     0.00530
 1042          1     0.00496
 1043          2     0.00565
 1049          1     0.00473
 1052          1     0.00582
 1058          1     0.00569
 1062          1     0.00568
 1086          2     0.01170
 1089          1     0.00500
 1094          1     0.00542
 1105          1     0.00556
 1112          1     0.00565
 1123          1     0.00572
 1137          1     0.00588
 1278          1     0.00509
took 690 iterations
Trial Time:          0.04431
    0          1     0.05275
    4          2     0.17472
    5          1     0.02249
    7          1     0.04844
    8          5     0.12126
    9          1     0.05337
   11          4     0.24254
   12          4     0.11676
   13          6     0.15798
   14          6     0.28172
   15         13     0.20346
   16          9     0.28994
   17         17     0.23904
   18         22     0.36111
   19         23     0.36412
   20         31     0.36641
   21         41     0.33720
   22         52     0.87162
   23         83     0.59598
   24        105     0.78015
   25        121     0.51427
   26        123     0.47413
   27        182     0.45977
   28        167     0.53261
   29        199     0.64277
   30        230     0.52034
   31        207     0.43743
   32        241     0.56408
   33        234     0.71484
   34        309     0.53348
   35        332     0.62424
   36        281     0.43611
   37        311     0.40476
   38        322     0.41134
   39        315     0.40525
   40        332     0.28524
   41        316     0.44510
   42        359     0.33811
   43        361     0.26058
   44        357     0.28518
   45        343     0.26695
   46        382     0.31667
   47        333     0.28609
   48        364     0.23017
   49        348     0.23589
   50        314     0.18260
   51        344     0.25808
   52        377     0.23751
   53        347     0.21579
   54        361     0.22782
   55        355     0.16125
   56        340     0.20563
   57        364     0.14199
   58        355     0.17180
   59        375     0.17339
   60        331     0.15782
   61        352     0.18733
   62        348     0.12417
   63        370     0.14278
   64        334     0.09494
   65        306     0.12297
   66        343     0.12610
   67        340     0.11390
   68        335     0.09370
   69        337     0.09071
   70        322     0.10249
   71        337     0.10166
   72        297     0.07552
   73        322     0.10075
   74        327     0.11154
   75        335     0.09333
   76        313     0.10297
   77        337     0.09588
   78        312     0.09895
   79        347     0.09931
   80        315     0.08424
   81        318     0.09163
   82        311     0.08648
   83        310     0.07432
   84        284     0.08409
   85        321     0.08143
   86        315     0.07451
   87        294     0.06758
   88        313     0.06702
   89        274     0.06659
   90        286     0.07620
   91        317     0.08477
   92        285     0.06757
   93        289     0.07122
   94        311     0.08940
   95        306     0.08744
   96        274     0.07247
   97        319     0.06678
   98        291     0.08611
   99        304     0.05795
  100        284     0.07098
  101        296     0.06417
  102        280     0.06711
  103        276     0.06093
  104        308     0.07655
  105        267     0.06043
  106        282     0.05699
  107        288     0.08119
  108        291     0.06935
  109        263     0.05033
  110        299     0.05856
  111        298     0.06113
  112        265     0.05238
  113        294     0.05100
  114        318     0.06849
  115        301     0.05600
  116        275     0.04409
  117        292     0.06947
  118        292     0.06392
  119        267     0.05567
  120        270     0.06341
  121        271     0.06668
  122        259     0.05057
  123        259     0.06258
  124        281     0.04412
  125        242     0.04557
  126        302     0.06387
  127        255     0.05517
  128        249     0.05194
  129        260     0.05287
  130        263     0.04311
  131        276     0.04664
  132        244     0.04210
  133        247     0.05104
  134        258     0.06083
  135        250     0.04269
  136        264     0.07556
  137        235     0.04326
  138        221     0.03712
  139        234     0.05741
  140        271     0.05097
  141        260     0.04335
  142        252     0.05094
  143        230     0.04538
  144        278     0.04327
  145        261     0.04650
  146        222     0.03953
  147        252     0.06057
  148        258     0.03859
  149        262     0.04469
  150        246     0.05239
  151        226     0.03479
  152        266     0.05478
  153        226     0.03066
  154        235     0.04334
  155        258     0.03653
  156        246     0.04126
  157        246     0.03916
  158        231     0.02757
  159        264     0.03737
  160        249     0.03470
  161        241     0.04353
  162        251     0.04757
  163        250     0.04794
  164        231     0.03464
  165        238     0.03602
  166        233     0.03622
  167        224     0.03655
  168        242     0.03254
  169        224     0.05776
  170        247     0.04248
  171        228     0.04490
  172        213     0.02994
  173        259     0.04828
  174        242     0.04039
  175        236     0.03483
  176        246     0.04702
  177        262     0.03472
  178        236     0.03367
  179        247     0.04745
  180        241     0.04435
  181        230     0.04956
  182        215     0.03856
  183        221     0.03184
  184        219     0.03716
  185        219     0.03372
  186        237     0.03841
  187        242     0.04095
  188        225     0.03544
  189        203     0.02788
  190        237     0.03223
  191        233     0.04281
  192        225     0.03194
  193        185     0.03863
  194        182     0.03559
  195        209     0.03570
  196        208     0.02693
  197        214     0.03484
  198        233     0.03206
  199        210     0.02717
  200        213     0.03172
  201        227     0.03830
  202        215     0.03105
  203        236     0.03986
  204        189     0.03565
  205        218     0.04377
  206        209     0.03204
  207        202     0.03658
  208        205     0.03080
  209        208     0.03927
  210        223     0.03070
  211        202     0.02984
  212        202     0.04101
  213        215     0.03436
  214        210     0.03832
  215        199     0.04393
  216        201     0.02729
  217        197     0.02998
  218        206     0.03545
  219        187     0.02782
  220        240     0.03429
  221        232     0.03657
  222        194     0.02923
  223        177     0.03257
  224        193     0.03705
  225        196     0.03868
  226        171     0.03020
  227        217     0.03653
  228        205     0.03819
  229        210     0.02603
  230        209     0.02481
  231        192     0.03589
  232        195     0.02865
  233        194     0.02359
  234        229     0.02913
  235        193     0.03829
  236        212     0.02923
  237        221     0.02594
  238        197     0.02632
  239        180     0.02538
  240        181     0.03275
  241        183     0.02960
  242        183     0.02475
  243        187     0.04195
  244        200     0.02179
  245        173     0.02569
  246        220     0.02890
  247        189     0.03137
  248        181     0.02566
  249        204     0.02184
  250        190     0.02760
  251        221     0.04471
  252        207     0.03791
  253        200     0.02463
  254        216     0.03824
  255        187     0.03462
  256        187     0.01889
  257        197     0.03252
  258        202     0.03107
  259        216     0.03998
  260        190     0.02704
  261        182     0.03698
  262        186     0.02976
  263        198     0.03616
  264        177     0.02217
  265        180     0.02822
  266        209     0.03626
  267        164     0.02894
  268        194     0.02561
  269        192     0.03074
  270        174     0.02507
  271        210     0.03311
  272        185     0.02714
  273        187     0.03078
  274        183     0.02433
  275        164     0.02895
  276        157     0.03336
  277        164     0.02086
  278        148     0.02594
  279        168     0.02495
  280        130     0.02184
  281        151     0.02000
  282        169     0.02977
  283        164     0.02736
  284        149     0.02514
  285        131     0.03570
  286        122     0.02295
  287        131     0.02018
  288        127     0.02766
  289        104     0.02516
  290        111     0.02327
  291         98     0.01936
  292         90     0.02419
  293         99     0.02247
  294        115     0.01908
  295        108     0.01978
  296         86     0.02247
  297         77     0.01929
  298         74     0.01382
  299         87     0.02179
  300         82     0.02004
  301         75     0.01609
  302         72     0.01778
  303         77     0.02300
  304         71     0.01510
  305         56     0.01988
  306         66     0.01590
  307         70     0.02170
  308         54     0.02135
  309         63     0.02476
  310         63     0.01534
  311         79     0.02889
  312         58     0.02141
  313         46     0.01903
  314         64     0.02767
  315         45     0.01614
  316         56     0.01810
  317         42     0.01381
  318         44     0.01403
  319         45     0.01436
  320         41     0.01882
  321         39     0.01279
  322         33     0.01690
  323         51     0.01814
  324         51     0.01828
  325         47     0.01731
  326         44     0.01936
  327         50     0.01727
  328         50     0.02034
  329         38     0.01649
  330         38     0.01428
  331         39     0.01442
  332         37     0.02113
  333         45     0.01453
  334         39     0.01577
  335         45     0.02168
  336         33     0.01315
  337         46     0.01816
  338         43     0.01499
  339         37     0.01743
  340         42     0.01820
  341         40     0.01629
  342         44     0.01444
  343         27     0.01898
  344         25     0.00844
  345         38     0.02119
  346         30     0.01149
  347         40     0.02280
  348         29     0.00898
  349         21     0.01058
  350         39     0.01766
  351         31     0.01762
  352         27     0.01269
  353         21     0.01525
  354         35     0.02000
  355         35     0.01260
  356         32     0.01533
  357         23     0.00876
  358         27     0.01275
  359         32     0.01357
  360         32     0.01255
  361         31     0.01688
  362         22     0.01227
  363         27     0.01366
  364         23     0.01015
  365         28     0.01593
  366         19     0.01432
  367         36     0.01587
  368         29     0.01245
  369         27     0.00924
  370         19     0.00967
  371         16     0.00793
  372         20     0.01109
  373         19     0.01415
  374         20     0.01445
  375         23     0.01348
  376         18     0.00941
  377         27     0.01038
  378         30     0.01593
  379         22     0.01343
  380         17     0.01921
  381         33     0.01576
  382         30     0.02088
  383         30     0.01459
  384         24     0.01472
  385         18     0.01277
  386         16     0.00791
  387         28     0.00949
  388         17     0.01343
  389         22     0.01375
  390         20     0.01331
  391         12     0.00721
  392         19     0.01322
  393         20     0.01299
  394         26     0.01337
  395         12     0.01301
  396         11     0.01035
  397         18     0.00877
  398         21     0.01090
  399         21     0.01453
  400         17     0.01194
  401         13     0.01326
  402         14     0.00855
  403         21     0.01141
  404         16     0.01256
  405         19     0.01076
  406         10     0.00695
  407         18     0.01039
  408         13     0.00834
  409         13     0.01299
  410         14     0.00955
  411         22     0.01157
  412         17     0.01671
  413         15     0.01143
  414         22     0.01014
  415         15     0.01131
  416         18     0.00866
  417         19     0.00782
  418         14     0.01087
  419         19     0.01136
  420         10     0.00699
  421         16     0.00711
  422         11     0.00695
  423         13     0.00729
  424         25     0.01364
  425         15     0.01346
  426         17     0.01419
  427         17     0.01117
  428         11     0.01308
  429         14     0.01125
  430         11     0.01079
  431         17     0.00847
  432         14     0.00776
  433         15     0.01003
  434         17     0.00942
  435         13     0.00850
  436         20     0.01676
  437          4     0.00587
  438          9     0.00696
  439         15     0.01228
  440         12     0.01080
  441          7     0.00682
  442         13     0.01177
  443         15     0.00777
  444          7     0.00623
  445         15     0.01127
  446         12     0.00693
  447         12     0.00919
  448         15     0.00980
  449          9     0.00878
  450         14     0.00801
  451          9     0.00971
  452         13     0.00767
  453          9     0.00729
  454          9     0.00898
  455          6     0.00601
  456         12     0.00740
  457         11     0.00792
  458         18     0.00911
  459         11     0.00721
  460         14     0.00787
  461          8     0.00649
  462         13     0.00898
  463          8     0.01825
  464          9     0.00707
  465         13     0.01066
  466          7     0.00693
  467          5     0.01062
  468          9     0.00814
  469          6     0.00995
  470         10     0.00665
  471          6     0.00658
  472         15     0.01434
  473          7     0.01084
  474         14     0.01363
  475          7     0.00643
  476          9     0.00771
  477          3     0.00560
  478          5     0.00632
  479          6     0.00737
  480          7     0.00683
  481          6     0.00889
  482          4     0.00567
  483          2     0.01043
  484          7     0.00849
  485          7     0.01201
  486          8     0.00709
  487          9     0.00678
  488          6     0.00570
  489          7     0.00596
  490          4     0.00552
  491         12     0.01252
  492          4     0.00622
  493          5     0.00604
  494          7     0.00942
  495          7     0.00636
  496          7     0.01557
  497          7     0.00682
  498          7     0.00716
  499          6     0.00650
  500          7     0.01009
  501          8     0.00798
  502          3     0.00602
  503          7     0.00625
  504          7     0.00629
  505          7     0.00616
  506          2     0.00528
  507          4     0.00607
  508          5     0.01046
  509          5     0.00589
  510          2     0.00563
  511          4     0.00573
  512          4     0.00524
  513          7     0.00679
  514          4     0.00745
  515          6     0.00679
  516          4     0.00610
  517          5     0.00900
  518          2     0.00509
  519          1     0.00519
  520          2     0.00508
  521          7     0.00840
  522          4     0.00648
  523          7     0.00965
  524          2     0.00518
  525          6     0.00610
  527          2     0.00560
  528          5     0.01061
  529          2     0.00539
  530          5     0.00539
  531          6     0.00759
  532          6     0.01129
  533          3     0.00527
  534          4     0.00571
  535          3     0.00665
  536          4     0.00580
  537          2     0.00493
  538          3     0.01403
  539          3     0.00603
  540          6     0.00713
  541          2     0.00523
  542          5     0.00825
  543          4     0.00598
  544          2     0.00864
  545          4     0.00831
  546          4     0.00631
  547          2     0.00542
  548          2     0.00498
  549          2     0.00536
  550          3     0.00519
  551          4     0.00578
  553          3     0.00535
  554          4     0.00592
  556          2     0.00794
  558          3     0.00533
  559          5     0.00849
  560          3     0.00562
  561          4     0.00805
  562          1     0.00512
  563          1     0.00507
  564          2     0.00558
  565          1     0.00941
  566          5     0.00593
  567          1     0.00549
  568          1     0.00666
  569          1     0.00500
  570          1     0.00511
  571          1     0.00556
  572          1     0.00521
  573          2     0.00788
  574          1     0.00509
  575          1     0.00541
  576          1     0.00487
  577          2     0.00585
  578          3     0.00946
  579          3     0.00790
  580          1     0.00553
  582          2     0.00519
  583          4     0.00608
  584          2     0.00489
  585          1     0.00514
  586          4     0.00552
  587          1     0.00514
  588          2     0.00494
  590          2     0.00536
  591          1     0.00574
  594          3     0.00594
  595          3     0.00566
  596          1     0.00511
  597          3     0.00566
  598          1     0.00471
  599          1     0.00528
  600          4     0.00673
  601          2     0.00520
  602          4     0.00587
  604          1     0.00540
  606          2     0.00496
  607          3     0.00615
  609          4     0.03445
  610          1     0.00747
  612          1     0.00530
  614          1     0.00534
  616          1     0.00493
  617          3     0.00625
  619          3     0.00588
  621          3     0.00524
  623          2     0.00545
  624          1     0.00642
  625          1     0.00548
  626          2     0.00892
  628          1     0.00499
  629          2     0.00492
  630          2     0.00495
  631          2     0.00937
  632          2     0.00576
  633          1     0.00509
  636          2     0.00986
  637          3     0.00795
  638          1     0.00546
  639          2     0.00602
  641          3     0.00562
  642          1     0.00504
  644          2     0.00859
  647          1     0.00533
  648          3     0.00831
  649          2     0.00557
  650          1     0.00524
  652          3     0.00587
  655          1     0.00929
  656          2     0.00576
  661          1     0.00553
  662          1     0.00556
  663          1     0.00541
  665          1     0.00536
  667          2     0.00506
  673          1     0.00546
  677          1     0.00532
  679          2     0.00486
  680          1     0.00502
  681          1     0.00506
  684          1     0.00560
  685          1     0.00914
  690          1     0.00572
  691          1     0.00509
  694          1     0.00531
  695          1     0.00506
  696          1     0.00848
  697          1     0.00506
  698          1     0.00489
  699          2     0.00608
  700          1     0.00547
  703          1     0.00505
  705          1     0.00523
  713          1     0.00534
  717          1     0.00525
  718          1     0.00546
  719          1     0.00526
  721          1     0.00556
  725          1     0.00586
  726          1     0.00515
  727          1     0.00507
  732          1     0.00571
  735          1     0.00541
  739          1     0.00572
  755          1     0.00594
  758          1     0.00675
  766          1     0.00787
  776          1     0.00816
  777          1     0.00568
  779          1     0.00792
  782          1     0.00535
  785          1     0.00546
  786          1     0.00551
  792          1     0.00557
  793          1     0.00530
  795          1     0.00559
  814          1     0.00583
  825          1     0.00464
  826          1     0.00531
  832          1     0.00537
  833          1     0.00504
  836          1     0.00516
  846          1     0.00510
  869          1     0.01177
  872          2     0.00557
  873          1     0.00505
  883          1     0.00538
  884          1     0.00516
  902          1     0.00505
  920          1     0.00646
 1061          1     0.00482
took 686 iterations
Trial Time:          0.04426
    0          1     0.03765
    1          1     0.08232
    3          1     0.06101
    4          1     0.00467
    6          1     0.01919
    7          1     0.04174
    8          1     0.01219
    9          1     0.01726
   10          1     0.00775
   12          1     0.00913
   14          2     0.13337
   15          2     0.01104
   16          2     0.03351
   17          1     0.01180
   18          4     0.59530
   19          9     0.16425
   20         12     0.07411
   21          9     0.15646
   22         14     0.54491
   23         10     0.12268
   24         13     0.14663
   25         18     0.25914
   26         28     0.32626
   27         33     0.55452
   28         49     0.53684
   29         73     0.59783
   30         79     0.44551
   31        101     1.11315
   32         97     0.50709
   33        123     0.57374
   34        153     0.52204
   35        182     0.49586
   36        198     0.54238
   37        216     0.55266
   38        252     0.53191
   39        263     0.62517
   40        275     0.55674
   41        293     0.53045
   42        279     0.51759
   43        335     0.62613
   44        324     0.45152
   45        335     0.42801
   46        333     0.37527
   47        323     0.32922
   48        363     0.45062
   49        362     0.30765
   50        359     0.30717
   51        381     0.26081
   52        350     0.21352
   53        361     0.31749
   54        368     0.21472
   55        371     0.22707
   56        380     0.23404
   57        367     0.22163
   58        363     0.19810
   59        356     0.18842
   60        372     0.19227
   61        372     0.18491
   62        350     0.15131
   63        338     0.16689
   64        329     0.14891
   65        375     0.16044
   66        354     0.12552
   67        353     0.11369
   68        370     0.13145
   69        320     0.14129
   70        331     0.15694
   71        345     0.11761
   72        327     0.11130
   73        343     0.10484
   74        347     0.11296
   75        325     0.11631
   76        295     0.09686
   77        367     0.11642
   78        328     0.10236
   79        324     0.10853
   80        318     0.09107
   81        311     0.09249
   82        294     0.08902
   83        313     0.09118
   84        332     0.10448
   85        352     0.12388
   86        342     0.08857
   87        327     0.08898
   88        310     0.08074
   89        309     0.07070
   90        304     0.08654
   91        325     0.07897
   92        288     0.07223
   93        303     0.08140
   94        337     0.07902
   95        307     0.08137
   96        284     0.07602
   97        297     0.06757
   98        322     0.07587
   99        284     0.06317
  100        303     0.06911
  101        289     0.05690
  102        316     0.07602
  103        269     0.06603
  104        292     0.06219
  105        291     0.06401
  106        291     0.07698
  107        289     0.05775
  108        286     0.06984
  109        305     0.06085
  110        273     0.06053
  111        255     0.07340
  112        279     0.05678
  113        279     0.06408
  114        321     0.07080
  115        292     0.05203
  116        293     0.07676
  117        271     0.05911
  118        282     0.06094
  119        288     0.05468
  120        260     0.05410
  121        291     0.05592
  122        256     0.05455
  123        291     0.06678
  124        297     0.06426
  125        262     0.05936
  126        283     0.05547
  127        261     0.05138
  128        239     0.05313
  129        275     0.06259
  130        261     0.03628
  131        244     0.04594
  132        276     0.05124
  133        290     0.05151
  134        272     0.05283
  135        280     0.07642
  136        272     0.05373
  137        230     0.04137
  138        263     0.05478
  139        251     0.05701
  140        248     0.03959
  141        254     0.04981
  142        263     0.05791
  143        272     0.04726
  144        221     0.04637
  145        258     0.04832
  146        262     0.05304
  147        259     0.04652
  148        264     0.05004
  149        271     0.05981
  150        259     0.05057
  151        236     0.04126
  152        270     0.04074
  153        282     0.03959
  154        262     0.05212
  155        246     0.04320
  156        246     0.04087
  157        237     0.03839
  158        239     0.03706
  159        263     0.05171
  160        237     0.04913
  161        222     0.04227
  162        248     0.04334
  163        231     0.03397
  164        250     0.04290
  165        258     0.04826
  166        226     0.03687
  167        252     0.04113
  168        236     0.04254
  169        263     0.03778
  170        227     0.04241
  171        238     0.04024
  172        220     0.03234
  173        258     0.04256
  174        238     0.03815
  175        263     0.04299
  176        224     0.03294
  177        235     0.04387
  178        213     0.03473
  179        236     0.05048
  180        226     0.03696
  181        232     0.03441
  182        245     0.05605
  183        268     0.03361
  184        237     0.03584
  185        244     0.05018
  186        241     0.03130
  187        255     0.04502
  188        211     0.03320
  189        222     0.03328
  190        205     0.03254
  191        238     0.04769
  192        243     0.04207
  193        201     0.03096
  194        238     0.03293
  195        220     0.04325
  196        229     0.03646
  197        195     0.03215
  198        239     0.04304
  199        224     0.03350
  200        196     0.02863
  201        218     0.03166
  202        229     0.03459
  203        220     0.03843
  204        222     0.03471
  205        222     0.03261
  206        224     0.02915
  207        231     0.03937
  208        209     0.03178
  209        227     0.03234
  210        213     0.03673
  211        203     0.02836
  212        184     0.03960
  213        216     0.03617
  214        199     0.03002
  215        228     0.03005
  216        197     0.03375
  217        208     0.02766
  218        207     0.02900
  219        223     0.02864
  220        214     0.03834
  221        184     0.03963
  222        208     0.04886
  223        206     0.02958
  224        202     0.03401
  225        202     0.03127
  226        197     0.03748
  227        204     0.03242
  228        205     0.03470
  229        199     0.03224
  230        227     0.03205
  231        201     0.02793
  232        230     0.03206
  233        178     0.03145
  234        195     0.02494
  235        213     0.02689
  236        205     0.03197
  237        232     0.03124
  238        189     0.02538
  239        203     0.02758
  240        202     0.03095
  241        218     0.03073
  242        205     0.04224
  243        200     0.03364
  244        213     0.03418
  245        197     0.02752
  246        210     0.03783
  247        202     0.02838
  248        188     0.02739
  249        188     0.02003
  250        188     0.03296
  251        187     0.02792
  252        172     0.02291
  253        229     0.02890
  254        190     0.02917
  255        172     0.03006
  256        191     0.03101
  257        199     0.04168
  258        197     0.03905
  259        182     0.02128
  260        213     0.02753
  261        221     0.02894
  262        201     0.02761
  263        227     0.03051
  264        194     0.03190
  265        178     0.02360
  266        166     0.01763
  267        175     0.03176
  268        191     0.03191
  269        211     0.02909
  270        189     0.04269
  271        188     0.03474
  272        211     0.02835
  273        206     0.03029
  274        167     0.02428
  275        180     0.02949
  276        169     0.02853
  277        190     0.03331
  278        192     0.03158
  279        186     0.02670
  280        197     0.03147
  281        174     0.03585
  282        183     0.03919
  283        163     0.03419
  284        162     0.03172
  285        152     0.03081
  286        168     0.02923
  287        154     0.02458
  288        136     0.02234
  289        138     0.02385
  290        130     0.02489
  291        124     0.02180
  292        120     0.02223
  293        115     0.02187
  294        124     0.02264
  295        135     0.02839
  296        116     0.01963
  297        105     0.02830
  298         91     0.02288
  299        106     0.02445
  300         88     0.02126
  301         94     0.01919
  302         85     0.02034
  303         82     0.01856
  304         76     0.02347
  305         75     0.01981
  306         62     0.02123
  307         69     0.01741
  308         66     0.01945
  309         80     0.02678
  310         86     0.01776
  311         76     0.01896
  312         58     0.01879
  313         71     0.02464
  314         79     0.01868
  315         61     0.01847
  316         49     0.01468
  317         69     0.02040
  318         42     0.01953
  319         54     0.01656
  320         59     0.01359
  321         52     0.01636
  322         45     0.01854
  323         43     0.02258
  324         39     0.01178
  325         45     0.02657
  326         43     0.01674
  327         49     0.01551
  328         57     0.01605
  329         70     0.02271
  330         38     0.01668
  331         35     0.01037
  332         33     0.01286
  333         50     0.01195
  334         58     0.02081
  335         33     0.01537
  336         46     0.01323
  337         32     0.01366
  338         55     0.02124
  339         32     0.01516
  340         48     0.02330
  341         28     0.00890
  342         38     0.01823
  343         37     0.01375
  344         38     0.01714
  345         43     0.01544
  346         38     0.01435
  347         39     0.02004
  348         37     0.01106
  349         36     0.01809
  350         34     0.01795
  351         32     0.01264
  352         30     0.01847
  353         43     0.01505
  354         35     0.01278
  355         25     0.01303
  356         22     0.00980
  357         28     0.01079
  358         34     0.01798
  359         28     0.00934
  360         29     0.01422
  361         27     0.01871
  362         26     0.00944
  363         29     0.01203
  364         42     0.01708
  365         29     0.01720
  366         28     0.01045
  367         27     0.01362
  368         29     0.01206
  369         31     0.01206
  370         30     0.01633
  371         21     0.01546
  372         19     0.01185
  373         12     0.00748
  374         24     0.01313
  375         23     0.01439
  376         20     0.01147
  377         21     0.01106
  378         22     0.00848
  379         24     0.01048
  380         26     0.00968
  381         26     0.01856
  382         23     0.01249
  383         23     0.01661
  384         20     0.00859
  385         23     0.01819
  386         24     0.01492
  387         24     0.01381
  388         33     0.01613
  389         21     0.01013
  390         23     0.01484
  391         16     0.00976
  392         20     0.01236
  393         18     0.00780
  394         14     0.01078
  395         20     0.00871
  396         15     0.00994
  397         26     0.01262
  398         19     0.01779
  399         25     0.00921
  400         14     0.01203
  401         13     0.00897
  402         16     0.01290
  403         28     0.01425
  404         26     0.00976
  405         10     0.00919
  406         13     0.00834
  407         18     0.01538
  408         21     0.01404
  409         18     0.01421
  410         15     0.01264
  411         19     0.01108
  412         15     0.00983
  413         13     0.01014
  414         20     0.01327
  415         19     0.01290
  416         17     0.00762
  417         14     0.01370
  418         23     0.01222
  419         17     0.00830
  420         15     0.00774
  421         13     0.01196
  422         18     0.00820
  423         16     0.01028
  424         11     0.01141
  425         21     0.01134
  426         20     0.00952
  427         12     0.00929
  428          9     0.01043
  429         14     0.00788
  430         12     0.00666
  431         14     0.01182
  432         14     0.01076
  433         13     0.01140
  434         15     0.00895
  435         20     0.01052
  436          9     0.00913
  437         10     0.00818
  438         16     0.01240
  439         16     0.00951
  440         12     0.01033
  441         12     0.01032
  442          9     0.01001
  443         19     0.00856
  444         13     0.00722
  445         16     0.00819
  446         12     0.01068
  447         16     0.00875
  448         10     0.01138
  449          9     0.00900
  450          9     0.00659
  451         16     0.00716
  452         14     0.00777
  453         10     0.01253
  454         13     0.01296
  455         11     0.01269
  456         11     0.00671
  457          9     0.00628
  458         11     0.00701
  459         10     0.00717
  460         10     0.00748
  461          8     0.00663
  462         12     0.00756
  463         11     0.01120
  464         12     0.00748
  465         10     0.01066
  466          9     0.00725
  467          8     0.00666
  468         12     0.01318
  469         12     0.00730
  470         13     0.01001
  471         15     0.00923
  472          6     0.00957
  473         10     0.00693
  474          6     0.00881
  475          6     0.00578
  476          3     0.00608
  477         18     0.01184
  478          8     0.00835
  479          5     0.00976
  480          8     0.02572
  481          8     0.01145
  482         12     0.00963
  483          5     0.01039
  484          4     0.00563
  485          6     0.00591
  486          5     0.00616
  487          4     0.00631
  488         12     0.01239
  489         11     0.00820
  490          5     0.00894
  491          4     0.00617
  492          4     0.00620
  493          9     0.00644
  494          4     0.01485
  495          7     0.00638
  496          7     0.00618
  497          3     0.00487
  498          5     0.00611
  499          5     0.00623
  500          9     0.00681
  501          7     0.00985
  502          4     0.00602
  503          9     0.01186
  504          8     0.01006
  505          9     0.00686
  506          9     0.00659
  507         11     0.00933
  508          5     0.00686
  509          9     0.01080
  510          8     0.00647
  511          4     0.00583
  512          3     0.00549
  513          7     0.01086
  514          5     0.00598
  515          1     0.00508
  516          4     0.00588
  517          7     0.00626
  518          4     0.00630
  519          7     0.00674
  520          1     0.00538
  521          3     0.00518
  522          2     0.00626
  523          4     0.00547
  524          7     0.00638
  525          5     0.00817
  526          3     0.00777
  527          5     0.00619
  528          3     0.00566
  529          3     0.00528
  530          4     0.00956
  531          3     0.00550
  532          4     0.00595
  533          4     0.00602
  534          3     0.00493
  535          1     0.00482
  536          2     0.00536
  537          4     0.01370
  538          3     0.00995
  539          2     0.00645
  540          4     0.00531
  541          5     0.00719
  542          2     0.00925
  543          1     0.00532
  544          2     0.00547
  545          4     0.00610
  546          8     0.01113
  547          3     0.00552
  548          2     0.00488
  549          4     0.00582
  550          5     0.01123
  551          1     0.00507
  552          3     0.00540
  553          2     0.00533
  554          5     0.00801
  555          1     0.00545
  556          2     0.00526
  557          4     0.00555
  558          3     0.00556
  559          3     0.00684
  561          6     0.00644
  562          3     0.00779
  563          2     0.00537
  564          4     0.00562
  566          2     0.00513
  568          1     0.00501
  569          1     0.00592
  570          1     0.00483
  571          1     0.00857
  572          3     0.00603
  573          4     0.00874
  574          3     0.00528
  575          3     0.00878
  576          2     0.00523
  578          3     0.00508
  579          2     0.00826
  580          1     0.00508
  581          1     0.00557
  582          3     0.00564
  584          4     0.00549
  585          4     0.01088
  586          1     0.00539
  588          2     0.00492
  589          3     0.00659
  590          2     0.00553
  591          2     0.00554
  593          2     0.00497
  594          4     0.00596
  595          2     0.00475
  596          1     0.00536
  600          1     0.00489
  601          1     0.00514
  602          1     0.00551
  603          2     0.00587
  604          3     0.00555
  605          3     0.00939
  606          1     0.00518
  608          2     0.00582
  609          1     0.00460
  610          4     0.00531
  612          1     0.00511
  614          1     0.00495
  615          2     0.00607
  616          1     0.00518
  618          2     0.01136
  619          2     0.00506
  621          1     0.00562
  622          1     0.00505
  623          3     0.01415
  624          2     0.00847
  625          1     0.00524
  626          2     0.00497
  627          2     0.00816
  628          4     0.00808
  629          2     0.00522
  630          2     0.00531
  634          1     0.00486
  635          3     0.00525
  637          3     0.00858
  638          2     0.00522
  639          1     0.00482
  640          1     0.00506
  641          1     0.00471
  642          1     0.00503
  643          1     0.00850
  646          2     0.00511
  648          2     0.00487
  649          2     0.00766
  653          2     0.00525
  654          1     0.00481
  655          2     0.00516
  656          1     0.00515
  657          2     0.00462
  658          1     0.00491
  659          1     0.00813
  660          1     0.00470
  661          1     0.00486
  663          1     0.00526
[...]
 1246          1     0.00477
took 692 iterations
Trial Time:          0.04434
    0          1     0.02175
  149          1     0.03045
  175          1     0.25033
  176          1     0.02317
  177          1     0.14823
  178          1     0.02642
  179          3     0.13865
  180          4     0.05926
  181          7     0.38653
  182          7     0.20259
  183          8     0.20818
  184         10     0.37448
  185          9     0.14597
  186         20     0.49627
  187         22     0.36251
  188         23     0.89186
  189         46     0.48675
  190         52     0.38682
  191         55     0.46992
  192         81     0.56241
  193         99     0.58487
  194        112     0.44620
  195        127     0.39654
  196        163     0.39610
  197        164     0.53362
  198        198     1.06531
  199        199     0.70015
  200        256     0.47959
  201        222     0.41705
  202        231     0.43105
  203        280     0.34149
  204        293     0.39519
  205        315     0.59208
  206        320     0.41656
  207        320     0.30414
  208        308     0.40157
  209        335     0.37347
  210        311     0.36756
  211        380     0.37541
  212        364     0.32088
  213        345     0.42217
  214        334     0.34187
  215        350     0.24690
  216        343     0.27248
  217        354     0.24700
  218        373     0.25710
  219        391     0.31470
  220        336     0.18456
  221        324     0.20771
  222        369     0.19525
  223        372     0.17683
  224        357     0.21776
  225        334     0.15967
  226        346     0.13008
  227        354     0.18248
  228        341     0.16541
  229        386     0.16966
  230        366     0.14062
  231        361     0.11710
  232        339     0.11213
  233        333     0.10557
  234        361     0.10500
  235        343     0.12810
  236        353     0.13392
  237        353     0.09925
  238        340     0.12019
  239        326     0.10305
  240        358     0.09283
  241        313     0.09141
  242        316     0.10392
  243        349     0.09498
  244        302     0.09273
  245        307     0.09587
  246        306     0.09488
  247        321     0.10324
  248        331     0.06829
  249        316     0.09382
  250        293     0.07222
  251        318     0.08061
  252        315     0.09278
  253        321     0.07394
  254        302     0.07437
  255        308     0.09493
  256        334     0.08923
  257        306     0.08432
  258        304     0.07406
  259        297     0.08458
  260        321     0.08750
  261        304     0.05896
  262        299     0.06951
  263        267     0.06235
  264        297     0.07505
  265        290     0.05591
  266        315     0.05783
  267        259     0.06233
  268        308     0.08496
  269        295     0.05990
  270        275     0.06082
  271        265     0.06253
  272        296     0.05598
  273        264     0.06897
  274        286     0.05705
  275        288     0.06536
  276        302     0.06165
  277        261     0.05728
  278        330     0.08212
  279        304     0.06159
  280        292     0.06457
  281        274     0.05437
  282        276     0.05073
  283        281     0.05879
  284        299     0.05561
  285        266     0.04887
  286        293     0.06130
  287        271     0.04588
  288        262     0.06285
  289        282     0.04581
  290        259     0.05615
  291        278     0.04784
  292        265     0.05542
  293        259     0.05004
  294        262     0.05657
  295        273     0.05567
  296        269     0.05765
  297        249     0.06849
  298        261     0.06589
  299        286     0.04778
  300        256     0.04887
  301        227     0.04985
  302        256     0.03895
  303        281     0.04604
  304        245     0.04960
  305        237     0.04231
  306        248     0.03744
  307        261     0.05719
  308        254     0.06242
  309        255     0.04965
  310        232     0.05235
  311        243     0.04850
  312        216     0.03473
  313        259     0.04927
  314        244     0.04872
  315        272     0.04869
  316        230     0.05901
  317        277     0.04994
  318        252     0.04610
  319        245     0.03793
  320        262     0.04702
  321        232     0.03552
  322        218     0.04074
  323        247     0.04434
  324        247     0.03703
  325        232     0.03896
  326        227     0.03970
  327        225     0.02983
  328        257     0.04382
  329        272     0.04095
  330        254     0.04082
  331        231     0.04576
  332        273     0.04170
  333        228     0.03134
  334        229     0.03476
  335        233     0.04912
  336        255     0.04433
  337        236     0.04564
  338        210     0.03139
  339        255     0.04682
  340        238     0.03229
  341        260     0.04508
  342        241     0.04227
  343        260     0.04479
  344        222     0.03701
  345        278     0.03873
  346        234     0.03103
  347        248     0.04427
  348        225     0.05365
  349        222     0.03185
  350        229     0.03683
  351        227     0.03704
  352        214     0.04180
  353        239     0.04154
  354        208     0.03009
  355        231     0.03607
  356        208     0.02567
  357        228     0.03577
  358        223     0.03072
  359        213     0.04238
  360        196     0.02754
  361        230     0.04303
  362        215     0.03860
  363        230     0.04235
  364        218     0.03060
  365        216     0.03220
  366        217     0.03979
  367        193     0.02877
  368        222     0.02685
  369        226     0.04439
  370        218     0.03442
  371        203     0.03675
  372        236     0.04193
  373        208     0.03831
  374        217     0.04326
  375        228     0.03466
  376        206     0.02593
  377        194     0.02895
  378        197     0.03035
  379        224     0.03409
  380        206     0.02431
  381        201     0.03284
  382        217     0.03668
  383        197     0.02455
  384        205     0.03273
  385        203     0.02940
  386        214     0.03830
  387        210     0.03319
  388        221     0.03636
  389        168     0.03889
  390        202     0.03663
  391        197     0.02799
  392        189     0.03776
  393        202     0.02509
  394        188     0.03827
  395        199     0.02847
  396        213     0.03465
  397        218     0.03139
  398        201     0.03710
  399        210     0.02755
  400        204     0.02850
  401        188     0.03356
  402        196     0.02350
  403        225     0.03065
  404        219     0.04026
  405        180     0.02849
  406        177     0.02209
  407        215     0.02387
  408        189     0.03660
  409        180     0.02477
  410        206     0.03562
  411        191     0.03401
  412        189     0.03677
  413        184     0.02557
  414        214     0.02726
  415        196     0.02386
  416        201     0.02941
  417        199     0.02943
  418        212     0.02748
  419        179     0.03042
  420        204     0.02912
  421        212     0.02813
  422        201     0.02999
  423        192     0.03444
  424        176     0.02329
  425        197     0.02649
  426        207     0.03698
  427        201     0.04013
  428        175     0.02620
  429        173     0.02822
  430        186     0.02810
  431        223     0.02344
  432        212     0.02853
  433        191     0.03631
  434        189     0.03574
  435        183     0.04123
  436        180     0.02943
  437        205     0.03677
  438        204     0.02748
  439        189     0.02880
  440        174     0.02608
  441        162     0.03333
  442        185     0.02645
  443        180     0.02887
  444        168     0.03037
  445        182     0.02839
  446        144     0.02470
  447        163     0.02904
  448        157     0.02795
  449        153     0.02855
  450        150     0.02210
  451        153     0.02721
  452        143     0.03762
  453        139     0.02048
  454        127     0.02617
  455        133     0.02737
  456        113     0.02899
  457        103     0.02519
  458        124     0.02630
  459        122     0.01741
  460        109     0.02918
  461        107     0.01869
  462         81     0.01727
  463         95     0.03010
  464         89     0.02204
  465         96     0.01570
  466         88     0.01647
  467         87     0.02678
  468         79     0.01501
  469         88     0.02304
  470         71     0.01819
  471         74     0.01967
  472         66     0.01874
  473         65     0.01441
  474         70     0.02224
  475         74     0.02327
  476         60     0.01780
  477         55     0.02090
  478         53     0.02320
  479         56     0.01602
  480         56     0.01955
  481         54     0.01728
  482         52     0.02123
  483         54     0.01933
  484         49     0.01975
  485         51     0.01628
  486         57     0.01782
  487         50     0.01983
  488         46     0.02104
  489         55     0.01536
  490         50     0.02046
  491         47     0.01167
  492         46     0.01496
  493         54     0.01819
  494         44     0.01766
  495         38     0.01667
  496         50     0.01583
  497         42     0.01480
  498         41     0.01256
  499         44     0.01132
  500         47     0.02523
  501         34     0.01358
  502         60     0.02230
  503         38     0.01879
  504         40     0.01756
  505         35     0.01159
  506         40     0.01223
  507         33     0.01256
  508         33     0.01033
  509         49     0.01419
  510         31     0.01568
  511         40     0.01089
  512         29     0.02119
  513         34     0.01432
  514         24     0.01149
  515         33     0.01698
  516         37     0.01574
  517         29     0.01326
  518         23     0.00859
  519         24     0.01176
  520         31     0.01242
  521         28     0.01429
  522         22     0.01557
  523         44     0.02032
  524         28     0.01856
  525         29     0.01012
  526         28     0.01460
  527         29     0.01530
  528         34     0.01449
  529         18     0.00887
  530         27     0.01320
  531         35     0.01313
  532         24     0.01218
  533         32     0.01766
  534         31     0.01476
  535         24     0.01641
  536         20     0.01335
  537         24     0.00846
  538         22     0.01041
  539         18     0.00840
  540         21     0.01138
  541         25     0.00881
  542         16     0.01174
  543         25     0.00883
  544         24     0.01563
  545         25     0.01291
  546         20     0.03704
  547         29     0.00958
  548         21     0.01361
  549         21     0.01733
  550         22     0.02119
  551         21     0.01196
  552         24     0.01739
  553         23     0.01396
  554         25     0.00943
  555         19     0.01127
  556         25     0.00922
  557         24     0.01322
  558         18     0.00861
  559         24     0.01493
  560         16     0.00910
  561         17     0.01038
  562         20     0.01109
  563         17     0.01269
  564         16     0.00775
  565         20     0.00913
  566         15     0.00870
  567         12     0.01139
  568         18     0.01485
  569         11     0.01081
  570         28     0.02276
  571         19     0.00852
  572         16     0.00909
  573         24     0.00900
  574         18     0.01378
  575         20     0.01437
  576         17     0.01053
  577         13     0.00813
  578         15     0.01222
  579         15     0.01015
  580         15     0.00837
  581         18     0.01007
  582          8     0.00691
  583         14     0.00747
  584         20     0.01686
  585         17     0.01727
  586         13     0.00860
  587         17     0.01214
  588         17     0.00900
  589         11     0.00693
  590         25     0.00982
  591         14     0.00765
  592         14     0.01461
  593         13     0.01039
  594         17     0.01141
  595          9     0.00906
  596         13     0.00710
  597         15     0.01061
  598         18     0.01437
  599         13     0.00738
  600         14     0.00773
  601         14     0.01213
  602         15     0.00986
  603         11     0.00703
  604          8     0.00717
  605         11     0.01136
  606         16     0.01278
  607         14     0.01319
  608         13     0.00767
  609         13     0.01131
  610         19     0.01001
  611         14     0.00725
  612          9     0.00706
  613         14     0.00851
  614          9     0.00683
  615          9     0.00668
  616         14     0.01149
  617         15     0.00766
  618          7     0.01049
  619          6     0.00894
  620         13     0.00764
  621         10     0.00928
  622         16     0.00819
  623          7     0.00651
  624         10     0.01251
  625         12     0.01321
  626         10     0.00725
  627         10     0.00778
  628          7     0.00931
  629         15     0.00798
  630         12     0.00831
  631         13     0.01473
  632          8     0.00689
  633         10     0.00741
  634         11     0.00753
  635          9     0.00854
  636          8     0.01376
  637          9     0.00746
  638         12     0.01287
  639          9     0.00694
  640          8     0.00982
  641          8     0.01315
  642         12     0.00759
  643          7     0.00640
  644          5     0.00611
  645          6     0.00634
  646          7     0.00650
  647          6     0.01175
  648          8     0.00743
  649          4     0.00602
  650          9     0.00674
  651          6     0.00619
  652          5     0.00694
  653         11     0.00734
  654          7     0.00945
  655          5     0.00619
  656          3     0.00566
  657          5     0.00641
  658          7     0.00621
  659          3     0.00539
  660          8     0.01145
  661          5     0.00673
  662          5     0.00654
  663          5     0.00646
  664          8     0.01384
  665         12     0.00744
  666          9     0.01108
  667          9     0.00707
  668          3     0.00628
  669          6     0.01003
  670          6     0.00674
  671          3     0.00548
  672          5     0.00609
  673          6     0.00641
  674          9     0.00689
  675          5     0.00643
  676          4     0.00618
  677          7     0.00728
  678          7     0.00736
  679          4     0.00570
  680          3     0.00566
  681          5     0.01008
  682          8     0.00649
  683          2     0.00492
  684          4     0.00623
  685          2     0.00499
  686          6     0.01024
  687          6     0.00639
  688          6     0.00613
  689          2     0.00527
  690          4     0.00561
  691          3     0.00540
  692          3     0.00605
  694          5     0.00899
  695          2     0.00519
  696          4     0.00553
  697          3     0.00576
  698          1     0.00554
  699          4     0.00554
  700          5     0.01082
  701          1     0.00496
  702          1     0.00565
  703          4     0.00606
  704          4     0.00523
  705          5     0.00615
  706          6     0.00660
  707          3     0.00545
  708          6     0.00613
  709          2     0.00552
  710          5     0.01070
  711          3     0.00705
  712          5     0.00868
  713          2     0.01270
  714          6     0.00820
  715          1     0.00459
  716          2     0.00535
  717          1     0.00567
  718          2     0.00486
  719          5     0.00665
  720          4     0.00663
  721          5     0.00968
  722          2     0.00545
  723          3     0.00711
  724          4     0.00564
  725          1     0.00543
  728          1     0.00846
  729          1     0.00505
  730          2     0.00501
  731          2     0.01027
  732          2     0.00539
  733          2     0.00748
  734          1     0.00496
  735          3     0.00564
  736          3     0.00535
  737          2     0.00518
  738          1     0.00520
  739          3     0.00526
  740          1     0.00482
  741          2     0.00522
  742          1     0.00537
  743          4     0.00844
  745          1     0.00544
  746          1     0.00533
  747          3     0.00728
  748          2     0.00492
  749          4     0.00950
  750          1     0.00558
  752          3     0.00559
  753          1     0.00499
  754          2     0.00529
  755          1     0.00510
  758          3     0.00563
  759          2     0.00534
  760          3     0.00476
  761          2     0.00551
  763          4     0.00507
  764          3     0.00514
  766          3     0.00587
  769          1     0.00486
  770          4     0.00712
  771          1     0.00510
  773          1     0.00488
  774          3     0.00521
  775          3     0.00903
  776          1     0.00509
  777          1     0.00512
  778          2     0.00555
  779          1     0.00458
  780          2     0.00537
  782          2     0.00555
  783          1     0.00481
  786          2     0.01525
  788          5     0.00868
  789          1     0.00544
  792          4     0.00928
  794          2     0.00658
  795          1     0.00520
  797          3     0.00516
  798          1     0.00827
  799          2     0.00532
  800          2     0.00536
  804          2     0.00795
  805          1     0.00796
  809          3     0.00564
  811          1     0.00552
  812          1     0.00498
  813          2     0.00516
  814          2     0.00533
  815          1     0.00833
  816          1     0.00492
  817          3     0.00824
  818          2     0.00516
  819          1     0.00483
  821          3     0.00515
  824          3     0.00495
  829          1     0.00526
  830          1     0.00475
  831          2     0.00881
  833          2     0.00519
  834          1     0.00483
  837          1     0.00497
  848          2     0.00540
  849          2     0.00532
  850          1     0.00491
  851          1     0.00514
  855          1     0.00473
  856          1     0.00511
  857          1     0.00522
  858          1     0.00484
  859          1     0.00503
  861          1     0.00514
  862          1     0.00752
  867          1     0.00477
  870          1     0.00515
  871          2     0.00811
  872          2     0.00471
  876          1     0.00527
  877          1     0.00480
  879          1     0.00519
  880          1     0.00454
  881          1     0.00523
  887          1     0.00496
  893          1     0.00477
  896          1     0.00521
  899          1     0.00500
  900          1     0.00544
  901          1     0.00544
  908          1     0.00487
  930          1     0.00489
  932          1     0.00485
  941          1     0.00782
  945          2     0.00802
  947          1     0.00502
  951          1     0.00524
  952          1     0.00518
  956          1     0.00773
  961          1     0.00529
  962          1     0.00547
  972          1     0.00553
  989          1     0.00523
  993          1     0.00528
 1002          1     0.00438
 1003          1     0.00501
 1005          1     0.00490
 1009          1     0.00519
 1017          1     0.00468
 1041          1     0.00549
 1046          1     0.01156
 1049          2     0.00554
 1050          1     0.00509
 1051          1     0.00502
 1078          1     0.00547
 1097          1     0.00599
 1238          1     0.00486
took 681 iterations
Trial Time:          0.04438
Average Time:        0.03882
Exiting @ tick 1282531859500 because exiting with last active thread context
