
---------- Begin Simulation Statistics ----------
final_tick                               1045146808000                       # Number of ticks from beginning of simulation (restored from checkpoints and never reset)
host_inst_rate                                  58064                       # Simulator instruction rate (inst/s)
host_mem_usage                                 702968                       # Number of bytes of host memory used
host_op_rate                                    58254                       # Simulator op (including micro ops) rate (op/s)
host_seconds                                 19044.57                       # Real time elapsed on the host
host_tick_rate                               54878991                       # Simulator tick rate (ticks/s)
sim_freq                                 1000000000000                       # Frequency of simulated ticks
sim_insts                                  1105805705                       # Number of instructions simulated
sim_ops                                    1109431077                       # Number of ops (including micro ops) simulated
sim_seconds                                  1.045147                       # Number of seconds simulated
sim_ticks                                1045146808000                       # Number of ticks simulated
system.cpu0.branchPred.BTBCorrect                   0                       # Number of correct BTB predictions (this stat may not work properly.
system.cpu0.branchPred.BTBHitPct            87.885304                       # BTB Hit Percentage
system.cpu0.branchPred.BTBHits              144750481                       # Number of BTB hits
system.cpu0.branchPred.BTBLookups           164703852                       # Number of BTB lookups
system.cpu0.branchPred.RASInCorrect                 0                       # Number of incorrect RAS predictions.
system.cpu0.branchPred.condIncorrect         14252228                       # Number of conditional branches incorrect
system.cpu0.branchPred.condPredicted        229815837                       # Number of conditional branches predicted
system.cpu0.branchPred.indirectHits          18292484                       # Number of indirect target hits.
system.cpu0.branchPred.indirectLookups       18696386                       # Number of indirect predictor lookups.
system.cpu0.branchPred.indirectMisses          403902                       # Number of indirect misses.
system.cpu0.branchPred.lookups              290894911                       # Number of BP lookups
system.cpu0.branchPred.usedRAS                      0                       # Number of times the RAS was used to get a target.
system.cpu0.branchPredindirectMispredicted      1865328                       # Number of mispredicted indirect branches.
system.cpu0.commit.amos                       1811464                       # Number of atomic instructions committed
system.cpu0.commit.branchMispredicts          9570590                       # The number of times a branch was mispredicted
system.cpu0.commit.branches                 260682941                       # Number of branches committed
system.cpu0.commit.bw_lim_events             26256612                       # number cycles where commit BW limit reached
system.cpu0.commit.commitNonSpecStalls        5441386                       # The number of times commit has been forced to stall to communicate backwards
system.cpu0.commit.commitSquashedInsts       91344963                       # The number of squashed insts skipped by commit
system.cpu0.commit.committedInsts          1050734960                       # Number of instructions committed
system.cpu0.commit.committedOps            1052548955                       # Number of ops (including micro ops) committed
system.cpu0.commit.committed_per_cycle::samples   1946005531                       # Number of insts commited each cycle
system.cpu0.commit.committed_per_cycle::mean     0.540877                       # Number of insts commited each cycle
system.cpu0.commit.committed_per_cycle::stdev     1.272447                       # Number of insts commited each cycle
system.cpu0.commit.committed_per_cycle::underflows            0      0.00%      0.00% # Number of insts commited each cycle
system.cpu0.commit.committed_per_cycle::0   1424068891     73.18%     73.18% # Number of insts commited each cycle
system.cpu0.commit.committed_per_cycle::1    307844375     15.82%     89.00% # Number of insts commited each cycle
system.cpu0.commit.committed_per_cycle::2     82321630      4.23%     93.23% # Number of insts commited each cycle
system.cpu0.commit.committed_per_cycle::3     75815282      3.90%     97.12% # Number of insts commited each cycle
system.cpu0.commit.committed_per_cycle::4     17353520      0.89%     98.02% # Number of insts commited each cycle
system.cpu0.commit.committed_per_cycle::5      5070008      0.26%     98.28% # Number of insts commited each cycle
system.cpu0.commit.committed_per_cycle::6      3128033      0.16%     98.44% # Number of insts commited each cycle
system.cpu0.commit.committed_per_cycle::7      4147180      0.21%     98.65% # Number of insts commited each cycle
system.cpu0.commit.committed_per_cycle::8     26256612      1.35%    100.00% # Number of insts commited each cycle
system.cpu0.commit.committed_per_cycle::overflows            0      0.00%    100.00% # Number of insts commited each cycle
system.cpu0.commit.committed_per_cycle::min_value            0                       # Number of insts commited each cycle
system.cpu0.commit.committed_per_cycle::max_value            8                       # Number of insts commited each cycle
system.cpu0.commit.committed_per_cycle::total   1946005531                       # Number of insts commited each cycle
system.cpu0.commit.fp_insts                        50                       # Number of committed floating point instructions.
system.cpu0.commit.function_calls            20857147                       # Number of function calls committed.
system.cpu0.commit.int_insts               1015924816                       # Number of committed integer instructions.
system.cpu0.commit.loads                    326217657                       # Number of loads committed
system.cpu0.commit.membars                    3625353                       # Number of memory barriers committed
system.cpu0.commit.op_class_0::No_OpClass      3625359      0.34%      0.34% # Class of committed instruction
system.cpu0.commit.op_class_0::IntAlu       583901089     55.47%     55.82% # Class of committed instruction
system.cpu0.commit.op_class_0::IntMult        8030359      0.76%     56.58% # Class of committed instruction
system.cpu0.commit.op_class_0::IntDiv         1811037      0.17%     56.75% # Class of committed instruction
system.cpu0.commit.op_class_0::FloatAdd             0      0.00%     56.75% # Class of committed instruction
system.cpu0.commit.op_class_0::FloatCmp             4      0.00%     56.75% # Class of committed instruction
system.cpu0.commit.op_class_0::FloatCvt            12      0.00%     56.75% # Class of committed instruction
system.cpu0.commit.op_class_0::FloatMult            0      0.00%     56.75% # Class of committed instruction
system.cpu0.commit.op_class_0::FloatMultAcc            0      0.00%     56.75% # Class of committed instruction
system.cpu0.commit.op_class_0::FloatDiv             2      0.00%     56.75% # Class of committed instruction
system.cpu0.commit.op_class_0::FloatMisc            4      0.00%     56.75% # Class of committed instruction
system.cpu0.commit.op_class_0::FloatSqrt            0      0.00%     56.75% # Class of committed instruction
system.cpu0.commit.op_class_0::SimdAdd              0      0.00%     56.75% # Class of committed instruction
system.cpu0.commit.op_class_0::SimdAddAcc            0      0.00%     56.75% # Class of committed instruction
system.cpu0.commit.op_class_0::SimdAlu              0      0.00%     56.75% # Class of committed instruction
system.cpu0.commit.op_class_0::SimdCmp              0      0.00%     56.75% # Class of committed instruction
system.cpu0.commit.op_class_0::SimdCvt              0      0.00%     56.75% # Class of committed instruction
system.cpu0.commit.op_class_0::SimdMisc             0      0.00%     56.75% # Class of committed instruction
system.cpu0.commit.op_class_0::SimdMult             0      0.00%     56.75% # Class of committed instruction
system.cpu0.commit.op_class_0::SimdMultAcc            0      0.00%     56.75% # Class of committed instruction
system.cpu0.commit.op_class_0::SimdShift            0      0.00%     56.75% # Class of committed instruction
system.cpu0.commit.op_class_0::SimdShiftAcc            0      0.00%     56.75% # Class of committed instruction
system.cpu0.commit.op_class_0::SimdDiv              0      0.00%     56.75% # Class of committed instruction
system.cpu0.commit.op_class_0::SimdSqrt             0      0.00%     56.75% # Class of committed instruction
system.cpu0.commit.op_class_0::SimdFloatAdd            0      0.00%     56.75% # Class of committed instruction
system.cpu0.commit.op_class_0::SimdFloatAlu            0      0.00%     56.75% # Class of committed instruction
system.cpu0.commit.op_class_0::SimdFloatCmp            0      0.00%     56.75% # Class of committed instruction
system.cpu0.commit.op_class_0::SimdFloatCvt            0      0.00%     56.75% # Class of committed instruction
system.cpu0.commit.op_class_0::SimdFloatDiv            0      0.00%     56.75% # Class of committed instruction
system.cpu0.commit.op_class_0::SimdFloatMisc            0      0.00%     56.75% # Class of committed instruction
system.cpu0.commit.op_class_0::SimdFloatMult            0      0.00%     56.75% # Class of committed instruction
system.cpu0.commit.op_class_0::SimdFloatMultAcc            0      0.00%     56.75% # Class of committed instruction
system.cpu0.commit.op_class_0::SimdFloatSqrt            0      0.00%     56.75% # Class of committed instruction
system.cpu0.commit.op_class_0::SimdReduceAdd            0      0.00%     56.75% # Class of committed instruction
system.cpu0.commit.op_class_0::SimdReduceAlu            0      0.00%     56.75% # Class of committed instruction
system.cpu0.commit.op_class_0::SimdReduceCmp            0      0.00%     56.75% # Class of committed instruction
system.cpu0.commit.op_class_0::SimdFloatReduceAdd            0      0.00%     56.75% # Class of committed instruction
system.cpu0.commit.op_class_0::SimdFloatReduceCmp            0      0.00%     56.75% # Class of committed instruction
system.cpu0.commit.op_class_0::SimdAes              0      0.00%     56.75% # Class of committed instruction
system.cpu0.commit.op_class_0::SimdAesMix            0      0.00%     56.75% # Class of committed instruction
system.cpu0.commit.op_class_0::SimdSha1Hash            0      0.00%     56.75% # Class of committed instruction
system.cpu0.commit.op_class_0::SimdSha1Hash2            0      0.00%     56.75% # Class of committed instruction
system.cpu0.commit.op_class_0::SimdSha256Hash            0      0.00%     56.75% # Class of committed instruction
system.cpu0.commit.op_class_0::SimdSha256Hash2            0      0.00%     56.75% # Class of committed instruction
system.cpu0.commit.op_class_0::SimdShaSigma2            0      0.00%     56.75% # Class of committed instruction
system.cpu0.commit.op_class_0::SimdShaSigma3            0      0.00%     56.75% # Class of committed instruction
system.cpu0.commit.op_class_0::SimdPredAlu            0      0.00%     56.75% # Class of committed instruction
system.cpu0.commit.op_class_0::MemRead      328029113     31.17%     87.92% # Class of committed instruction
system.cpu0.commit.op_class_0::MemWrite     127151948     12.08%    100.00% # Class of committed instruction
system.cpu0.commit.op_class_0::FloatMemRead            8      0.00%    100.00% # Class of committed instruction
system.cpu0.commit.op_class_0::FloatMemWrite           20      0.00%    100.00% # Class of committed instruction
system.cpu0.commit.op_class_0::IprAccess            0      0.00%    100.00% # Class of committed instruction
system.cpu0.commit.op_class_0::InstPrefetch            0      0.00%    100.00% # Class of committed instruction
system.cpu0.commit.op_class_0::total       1052548955                       # Class of committed instruction
system.cpu0.commit.refs                     455181089                       # Number of memory references committed
system.cpu0.commit.swp_count                        0                       # Number of s/w prefetches committed
system.cpu0.commit.vec_insts                        0                       # Number of committed Vector instructions.
system.cpu0.committedInsts                 1050734960                       # Number of Instructions Simulated
system.cpu0.committedOps                   1052548955                       # Number of Ops (including micro ops) Simulated
system.cpu0.cpi                              1.986558                       # CPI: Cycles Per Instruction
system.cpu0.cpi_total                        1.986558                       # CPI: Total CPI of All Threads
system.cpu0.decode.BlockedCycles            315765520                       # Number of cycles decode is blocked
system.cpu0.decode.BranchMispred              4691329                       # Number of times decode detected a branch misprediction
system.cpu0.decode.BranchResolved           142225134                       # Number of times decode resolved a branch
system.cpu0.decode.DecodedInsts            1173790530                       # Number of instructions handled by decode
system.cpu0.decode.IdleCycles               837751499                       # Number of cycles decode is idle
system.cpu0.decode.RunCycles                794479214                       # Number of cycles decode is running
system.cpu0.decode.SquashCycles               9584600                       # Number of cycles decode is squashing
system.cpu0.decode.SquashedInsts             13307831                       # Number of squashed instructions handled by decode
system.cpu0.decode.UnblockCycles              5467800                       # Number of cycles decode is unblocking
system.cpu0.dtb.accesses                            0                       # DTB accesses
system.cpu0.dtb.hits                                0                       # DTB hits
system.cpu0.dtb.misses                              0                       # DTB misses
system.cpu0.dtb.read_accesses                       0                       # DTB read accesses
system.cpu0.dtb.read_hits                           0                       # DTB read hits
system.cpu0.dtb.read_misses                         0                       # DTB read misses
system.cpu0.dtb.write_accesses                      0                       # DTB write accesses
system.cpu0.dtb.write_hits                          0                       # DTB write hits
system.cpu0.dtb.write_misses                        0                       # DTB write misses
system.cpu0.fetch.Branches                  290894911                       # Number of branches that fetch encountered
system.cpu0.fetch.CacheLines                210481713                       # Number of cache lines fetched
system.cpu0.fetch.Cycles                   1130111936                       # Number of cycles fetch has run and was not squashing or blocked
system.cpu0.fetch.IcacheSquashes              3293661                       # Number of outstanding Icache misses that were squashed
system.cpu0.fetch.IcacheWaitRetryStallCycles          144                       # Number of stall cycles due to full MSHR
system.cpu0.fetch.Insts                    1209342485                       # Number of instructions fetch has processed
system.cpu0.fetch.MiscStallCycles                  97                       # Number of cycles fetch has spent waiting on interrupts, or bad addresses, or out of MSHRs
system.cpu0.fetch.PendingTrapStallCycles          514                       # Number of stall cycles due to pending traps
system.cpu0.fetch.SquashCycles               28532636                       # Number of cycles fetch has spent squashing
system.cpu0.fetch.branchRate                 0.139361                       # Number of branch fetches per cycle
system.cpu0.fetch.icacheStallCycles         818669624                       # Number of cycles fetch is stalled on an Icache miss
system.cpu0.fetch.predictedBranches         163042965                       # Number of branches that fetch has predicted taken
system.cpu0.fetch.rate                       0.579368                       # Number of inst fetches per cycle
system.cpu0.fetch.rateDist::samples        1963048633                       # Number of instructions fetched each cycle (Total)
system.cpu0.fetch.rateDist::mean             0.619090                       # Number of instructions fetched each cycle (Total)
system.cpu0.fetch.rateDist::stdev            0.926854                       # Number of instructions fetched each cycle (Total)
system.cpu0.fetch.rateDist::underflows              0      0.00%      0.00% # Number of instructions fetched each cycle (Total)
system.cpu0.fetch.rateDist::0              1126367040     57.38%     57.38% # Number of instructions fetched each cycle (Total)
system.cpu0.fetch.rateDist::1               611675369     31.16%     88.54% # Number of instructions fetched each cycle (Total)
system.cpu0.fetch.rateDist::2               117732260      6.00%     94.54% # Number of instructions fetched each cycle (Total)
system.cpu0.fetch.rateDist::3                81210505      4.14%     98.67% # Number of instructions fetched each cycle (Total)
system.cpu0.fetch.rateDist::4                14594287      0.74%     99.42% # Number of instructions fetched each cycle (Total)
system.cpu0.fetch.rateDist::5                 6609714      0.34%     99.75% # Number of instructions fetched each cycle (Total)
system.cpu0.fetch.rateDist::6                 1015761      0.05%     99.80% # Number of instructions fetched each cycle (Total)
system.cpu0.fetch.rateDist::7                 3737354      0.19%     99.99% # Number of instructions fetched each cycle (Total)
system.cpu0.fetch.rateDist::8                  106343      0.01%    100.00% # Number of instructions fetched each cycle (Total)
system.cpu0.fetch.rateDist::overflows               0      0.00%    100.00% # Number of instructions fetched each cycle (Total)
system.cpu0.fetch.rateDist::min_value               0                       # Number of instructions fetched each cycle (Total)
system.cpu0.fetch.rateDist::max_value               8                       # Number of instructions fetched each cycle (Total)
system.cpu0.fetch.rateDist::total          1963048633                       # Number of instructions fetched each cycle (Total)
system.cpu0.fp_regfile_reads                       44                       # number of floating regfile reads
system.cpu0.fp_regfile_writes                      24                       # number of floating regfile writes
system.cpu0.idleCycles                      124297831                       # Total number of cycles that the CPU has spent unscheduled due to idling
system.cpu0.iew.branchMispredicts             9669289                       # Number of branch mispredicts detected at execute
system.cpu0.iew.exec_branches               270377449                       # Number of branches executed
system.cpu0.iew.exec_nop                            0                       # number of nop insts executed
system.cpu0.iew.exec_rate                    0.525463                       # Inst execution rate
system.cpu0.iew.exec_refs                   477111810                       # number of memory reference insts executed
system.cpu0.iew.exec_stores                 133033558                       # Number of stores executed
system.cpu0.iew.exec_swp                            0                       # number of swp insts executed
system.cpu0.iew.iewBlockCycles              260453982                       # Number of cycles IEW is blocking
system.cpu0.iew.iewDispLoadInsts            358958170                       # Number of dispatched load instructions
system.cpu0.iew.iewDispNonSpecInsts           4109504                       # Number of dispatched non-speculative instructions
system.cpu0.iew.iewDispSquashedInsts          5044121                       # Number of squashed instructions skipped by dispatch
system.cpu0.iew.iewDispStoreInsts           138576738                       # Number of dispatched store instructions
system.cpu0.iew.iewDispatchedInsts         1143862021                       # Number of instructions dispatched to IQ
system.cpu0.iew.iewExecLoadInsts            344078252                       # Number of load instructions executed
system.cpu0.iew.iewExecSquashedInsts          7970235                       # Number of squashed instructions skipped in execute
system.cpu0.iew.iewExecutedInsts           1096823563                       # Number of executed instructions
system.cpu0.iew.iewIQFullEvents               1706402                       # Number of times the IQ has become full, causing a stall
system.cpu0.iew.iewIdleCycles                       0                       # Number of cycles IEW is idle
system.cpu0.iew.iewLSQFullEvents              4527840                       # Number of times the LSQ has become full, causing a stall
system.cpu0.iew.iewSquashCycles               9584600                       # Number of cycles IEW is squashing
system.cpu0.iew.iewUnblockCycles              7984984                       # Number of cycles IEW is unblocking
system.cpu0.iew.lsq.thread0.blockedLoads            0                       # Number of blocked loads due to partial load-store forwarding
system.cpu0.iew.lsq.thread0.cacheBlocked       102802                       # Number of times an access to memory failed due to the cache being blocked
system.cpu0.iew.lsq.thread0.forwLoads        15413125                       # Number of loads that had data forwarded from stores
system.cpu0.iew.lsq.thread0.ignoredResponses        40512                       # Number of memory responses ignored because the instruction is squashed
system.cpu0.iew.lsq.thread0.invAddrLoads            0                       # Number of loads ignored due to an invalid address
system.cpu0.iew.lsq.thread0.invAddrSwpfs            0                       # Number of software prefetches ignored due to an invalid address
system.cpu0.iew.lsq.thread0.memOrderViolation        14230                       # Number of memory ordering violations
system.cpu0.iew.lsq.thread0.rescheduledLoads      4230699                       # Number of loads that were rescheduled
system.cpu0.iew.lsq.thread0.squashedLoads     32740513                       # Number of loads squashed
system.cpu0.iew.lsq.thread0.squashedStores      9613306                       # Number of stores squashed
system.cpu0.iew.memOrderViolationEvents         14230                       # Number of memory order violations
system.cpu0.iew.predictedNotTakenIncorrect      1585410                       # Number of branches that were predicted not taken incorrectly
system.cpu0.iew.predictedTakenIncorrect       8083879                       # Number of branches that were predicted taken incorrectly
system.cpu0.iew.wb_consumers                460335169                       # num instructions consuming a value
system.cpu0.iew.wb_count                   1088546846                       # cumulative count of insts written-back
system.cpu0.iew.wb_fanout                    0.881291                       # average fanout of values written-back
system.cpu0.iew.wb_producers                405689343                       # num instructions producing a value
system.cpu0.iew.wb_rate                      0.521498                       # insts written-back per cycle
system.cpu0.iew.wb_sent                    1088639698                       # cumulative count of insts sent to commit
system.cpu0.int_regfile_reads              1343513441                       # number of integer regfile reads
system.cpu0.int_regfile_writes              693080591                       # number of integer regfile writes
system.cpu0.ipc                              0.503383                       # IPC: Instructions Per Cycle
system.cpu0.ipc_total                        0.503383                       # IPC: Total IPC of All Threads
system.cpu0.iq.FU_type_0::No_OpClass          3626917      0.33%      0.33% # Type of FU issued
system.cpu0.iq.FU_type_0::IntAlu            610556241     55.26%     55.59% # Type of FU issued
system.cpu0.iq.FU_type_0::IntMult             8035937      0.73%     56.32% # Type of FU issued
system.cpu0.iq.FU_type_0::IntDiv              1811529      0.16%     56.48% # Type of FU issued
system.cpu0.iq.FU_type_0::FloatAdd                  0      0.00%     56.48% # Type of FU issued
system.cpu0.iq.FU_type_0::FloatCmp                  4      0.00%     56.48% # Type of FU issued
system.cpu0.iq.FU_type_0::FloatCvt                 12      0.00%     56.48% # Type of FU issued
system.cpu0.iq.FU_type_0::FloatMult                 0      0.00%     56.48% # Type of FU issued
system.cpu0.iq.FU_type_0::FloatMultAcc              0      0.00%     56.48% # Type of FU issued
system.cpu0.iq.FU_type_0::FloatDiv                  2      0.00%     56.48% # Type of FU issued
system.cpu0.iq.FU_type_0::FloatMisc                 4      0.00%     56.48% # Type of FU issued
system.cpu0.iq.FU_type_0::FloatSqrt                 0      0.00%     56.48% # Type of FU issued
system.cpu0.iq.FU_type_0::SimdAdd                   0      0.00%     56.48% # Type of FU issued
system.cpu0.iq.FU_type_0::SimdAddAcc                0      0.00%     56.48% # Type of FU issued
system.cpu0.iq.FU_type_0::SimdAlu                   0      0.00%     56.48% # Type of FU issued
system.cpu0.iq.FU_type_0::SimdCmp                   0      0.00%     56.48% # Type of FU issued
system.cpu0.iq.FU_type_0::SimdCvt                   0      0.00%     56.48% # Type of FU issued
system.cpu0.iq.FU_type_0::SimdMisc                  0      0.00%     56.48% # Type of FU issued
system.cpu0.iq.FU_type_0::SimdMult                  0      0.00%     56.48% # Type of FU issued
system.cpu0.iq.FU_type_0::SimdMultAcc               0      0.00%     56.48% # Type of FU issued
system.cpu0.iq.FU_type_0::SimdShift                 0      0.00%     56.48% # Type of FU issued
system.cpu0.iq.FU_type_0::SimdShiftAcc              0      0.00%     56.48% # Type of FU issued
system.cpu0.iq.FU_type_0::SimdDiv                   0      0.00%     56.48% # Type of FU issued
system.cpu0.iq.FU_type_0::SimdSqrt                  0      0.00%     56.48% # Type of FU issued
system.cpu0.iq.FU_type_0::SimdFloatAdd              0      0.00%     56.48% # Type of FU issued
system.cpu0.iq.FU_type_0::SimdFloatAlu              0      0.00%     56.48% # Type of FU issued
system.cpu0.iq.FU_type_0::SimdFloatCmp              0      0.00%     56.48% # Type of FU issued
system.cpu0.iq.FU_type_0::SimdFloatCvt              0      0.00%     56.48% # Type of FU issued
system.cpu0.iq.FU_type_0::SimdFloatDiv              0      0.00%     56.48% # Type of FU issued
system.cpu0.iq.FU_type_0::SimdFloatMisc             0      0.00%     56.48% # Type of FU issued
system.cpu0.iq.FU_type_0::SimdFloatMult             0      0.00%     56.48% # Type of FU issued
system.cpu0.iq.FU_type_0::SimdFloatMultAcc            0      0.00%     56.48% # Type of FU issued
system.cpu0.iq.FU_type_0::SimdFloatSqrt             0      0.00%     56.48% # Type of FU issued
system.cpu0.iq.FU_type_0::SimdReduceAdd             0      0.00%     56.48% # Type of FU issued
system.cpu0.iq.FU_type_0::SimdReduceAlu             0      0.00%     56.48% # Type of FU issued
system.cpu0.iq.FU_type_0::SimdReduceCmp             0      0.00%     56.48% # Type of FU issued
system.cpu0.iq.FU_type_0::SimdFloatReduceAdd            0      0.00%     56.48% # Type of FU issued
system.cpu0.iq.FU_type_0::SimdFloatReduceCmp            0      0.00%     56.48% # Type of FU issued
system.cpu0.iq.FU_type_0::SimdAes                   0      0.00%     56.48% # Type of FU issued
system.cpu0.iq.FU_type_0::SimdAesMix                0      0.00%     56.48% # Type of FU issued
system.cpu0.iq.FU_type_0::SimdSha1Hash              0      0.00%     56.48% # Type of FU issued
system.cpu0.iq.FU_type_0::SimdSha1Hash2             0      0.00%     56.48% # Type of FU issued
system.cpu0.iq.FU_type_0::SimdSha256Hash            0      0.00%     56.48% # Type of FU issued
system.cpu0.iq.FU_type_0::SimdSha256Hash2            0      0.00%     56.48% # Type of FU issued
system.cpu0.iq.FU_type_0::SimdShaSigma2             0      0.00%     56.48% # Type of FU issued
system.cpu0.iq.FU_type_0::SimdShaSigma3             0      0.00%     56.48% # Type of FU issued
system.cpu0.iq.FU_type_0::SimdPredAlu               0      0.00%     56.48% # Type of FU issued
system.cpu0.iq.FU_type_0::MemRead           349266632     31.61%     88.10% # Type of FU issued
system.cpu0.iq.FU_type_0::MemWrite          131496491     11.90%    100.00% # Type of FU issued
system.cpu0.iq.FU_type_0::FloatMemRead             10      0.00%    100.00% # Type of FU issued
system.cpu0.iq.FU_type_0::FloatMemWrite            20      0.00%    100.00% # Type of FU issued
system.cpu0.iq.FU_type_0::IprAccess                 0      0.00%    100.00% # Type of FU issued
system.cpu0.iq.FU_type_0::InstPrefetch              0      0.00%    100.00% # Type of FU issued
system.cpu0.iq.FU_type_0::total            1104793799                       # Type of FU issued
system.cpu0.iq.fp_alu_accesses                     54                       # Number of floating point alu accesses
system.cpu0.iq.fp_inst_queue_reads                106                       # Number of floating instruction queue reads
system.cpu0.iq.fp_inst_queue_wakeup_accesses           52                       # Number of floating instruction queue wakeup accesses
system.cpu0.iq.fp_inst_queue_writes                54                       # Number of floating instruction queue writes
system.cpu0.iq.fu_busy_cnt                    2338274                       # FU busy when requested
system.cpu0.iq.fu_busy_rate                  0.002116                       # FU busy rate (busy events/executed inst)
system.cpu0.iq.fu_full::No_OpClass                  0      0.00%      0.00% # attempts to use FU when none available
system.cpu0.iq.fu_full::IntAlu                 379902     16.25%     16.25% # attempts to use FU when none available
system.cpu0.iq.fu_full::IntMult                     0      0.00%     16.25% # attempts to use FU when none available
system.cpu0.iq.fu_full::IntDiv                      0      0.00%     16.25% # attempts to use FU when none available
system.cpu0.iq.fu_full::FloatAdd                    0      0.00%     16.25% # attempts to use FU when none available
system.cpu0.iq.fu_full::FloatCmp                    0      0.00%     16.25% # attempts to use FU when none available
system.cpu0.iq.fu_full::FloatCvt                    0      0.00%     16.25% # attempts to use FU when none available
system.cpu0.iq.fu_full::FloatMult                   0      0.00%     16.25% # attempts to use FU when none available
system.cpu0.iq.fu_full::FloatMultAcc                0      0.00%     16.25% # attempts to use FU when none available
system.cpu0.iq.fu_full::FloatDiv                    0      0.00%     16.25% # attempts to use FU when none available
system.cpu0.iq.fu_full::FloatMisc                   0      0.00%     16.25% # attempts to use FU when none available
system.cpu0.iq.fu_full::FloatSqrt                   0      0.00%     16.25% # attempts to use FU when none available
system.cpu0.iq.fu_full::SimdAdd                     0      0.00%     16.25% # attempts to use FU when none available
system.cpu0.iq.fu_full::SimdAddAcc                  0      0.00%     16.25% # attempts to use FU when none available
system.cpu0.iq.fu_full::SimdAlu                     0      0.00%     16.25% # attempts to use FU when none available
system.cpu0.iq.fu_full::SimdCmp                     0      0.00%     16.25% # attempts to use FU when none available
system.cpu0.iq.fu_full::SimdCvt                     0      0.00%     16.25% # attempts to use FU when none available
system.cpu0.iq.fu_full::SimdMisc                    0      0.00%     16.25% # attempts to use FU when none available
system.cpu0.iq.fu_full::SimdMult                    0      0.00%     16.25% # attempts to use FU when none available
system.cpu0.iq.fu_full::SimdMultAcc                 0      0.00%     16.25% # attempts to use FU when none available
system.cpu0.iq.fu_full::SimdShift                   0      0.00%     16.25% # attempts to use FU when none available
system.cpu0.iq.fu_full::SimdShiftAcc                0      0.00%     16.25% # attempts to use FU when none available
system.cpu0.iq.fu_full::SimdDiv                     0      0.00%     16.25% # attempts to use FU when none available
system.cpu0.iq.fu_full::SimdSqrt                    0      0.00%     16.25% # attempts to use FU when none available
system.cpu0.iq.fu_full::SimdFloatAdd                0      0.00%     16.25% # attempts to use FU when none available
system.cpu0.iq.fu_full::SimdFloatAlu                0      0.00%     16.25% # attempts to use FU when none available
system.cpu0.iq.fu_full::SimdFloatCmp                0      0.00%     16.25% # attempts to use FU when none available
system.cpu0.iq.fu_full::SimdFloatCvt                0      0.00%     16.25% # attempts to use FU when none available
system.cpu0.iq.fu_full::SimdFloatDiv                0      0.00%     16.25% # attempts to use FU when none available
system.cpu0.iq.fu_full::SimdFloatMisc               0      0.00%     16.25% # attempts to use FU when none available
system.cpu0.iq.fu_full::SimdFloatMult               0      0.00%     16.25% # attempts to use FU when none available
system.cpu0.iq.fu_full::SimdFloatMultAcc            0      0.00%     16.25% # attempts to use FU when none available
system.cpu0.iq.fu_full::SimdFloatSqrt               0      0.00%     16.25% # attempts to use FU when none available
system.cpu0.iq.fu_full::SimdReduceAdd               0      0.00%     16.25% # attempts to use FU when none available
system.cpu0.iq.fu_full::SimdReduceAlu               0      0.00%     16.25% # attempts to use FU when none available
system.cpu0.iq.fu_full::SimdReduceCmp               0      0.00%     16.25% # attempts to use FU when none available
system.cpu0.iq.fu_full::SimdFloatReduceAdd            0      0.00%     16.25% # attempts to use FU when none available
system.cpu0.iq.fu_full::SimdFloatReduceCmp            0      0.00%     16.25% # attempts to use FU when none available
system.cpu0.iq.fu_full::SimdAes                     0      0.00%     16.25% # attempts to use FU when none available
system.cpu0.iq.fu_full::SimdAesMix                  0      0.00%     16.25% # attempts to use FU when none available
system.cpu0.iq.fu_full::SimdSha1Hash                0      0.00%     16.25% # attempts to use FU when none available
system.cpu0.iq.fu_full::SimdSha1Hash2               0      0.00%     16.25% # attempts to use FU when none available
system.cpu0.iq.fu_full::SimdSha256Hash              0      0.00%     16.25% # attempts to use FU when none available
system.cpu0.iq.fu_full::SimdSha256Hash2             0      0.00%     16.25% # attempts to use FU when none available
system.cpu0.iq.fu_full::SimdShaSigma2               0      0.00%     16.25% # attempts to use FU when none available
system.cpu0.iq.fu_full::SimdShaSigma3               0      0.00%     16.25% # attempts to use FU when none available
system.cpu0.iq.fu_full::SimdPredAlu                 0      0.00%     16.25% # attempts to use FU when none available
system.cpu0.iq.fu_full::MemRead               1745360     74.64%     90.89% # attempts to use FU when none available
system.cpu0.iq.fu_full::MemWrite               213010      9.11%    100.00% # attempts to use FU when none available
system.cpu0.iq.fu_full::FloatMemRead                0      0.00%    100.00% # attempts to use FU when none available
system.cpu0.iq.fu_full::FloatMemWrite               2      0.00%    100.00% # attempts to use FU when none available
system.cpu0.iq.fu_full::IprAccess                   0      0.00%    100.00% # attempts to use FU when none available
system.cpu0.iq.fu_full::InstPrefetch                0      0.00%    100.00% # attempts to use FU when none available
system.cpu0.iq.int_alu_accesses            1103505102                       # Number of integer alu accesses
system.cpu0.iq.int_inst_queue_reads        4175099863                       # Number of integer instruction queue reads
system.cpu0.iq.int_inst_queue_wakeup_accesses   1088546794                       # Number of integer instruction queue wakeup accesses
system.cpu0.iq.int_inst_queue_writes       1235188343                       # Number of integer instruction queue writes
system.cpu0.iq.iqInstsAdded                1131536149                       # Number of instructions added to the IQ (excludes non-spec)
system.cpu0.iq.iqInstsIssued               1104793799                       # Number of instructions issued
system.cpu0.iq.iqNonSpecInstsAdded           12325872                       # Number of non-speculative instructions added to the IQ
system.cpu0.iq.iqSquashedInstsExamined       91313062                       # Number of squashed instructions iterated over during squash; mainly for profiling
system.cpu0.iq.iqSquashedInstsIssued           125465                       # Number of squashed instructions issued
system.cpu0.iq.iqSquashedNonSpecRemoved       6884486                       # Number of squashed non-spec instructions that were removed
system.cpu0.iq.iqSquashedOperandsExamined     55761714                       # Number of squashed operands that are examined and possibly removed from graph
system.cpu0.iq.issued_per_cycle::samples   1963048633                       # Number of insts issued each cycle
system.cpu0.iq.issued_per_cycle::mean        0.562795                       # Number of insts issued each cycle
system.cpu0.iq.issued_per_cycle::stdev       0.798277                       # Number of insts issued each cycle
system.cpu0.iq.issued_per_cycle::underflows            0      0.00%      0.00% # Number of insts issued each cycle
system.cpu0.iq.issued_per_cycle::0         1154425347     58.81%     58.81% # Number of insts issued each cycle
system.cpu0.iq.issued_per_cycle::1          577478562     29.42%     88.23% # Number of insts issued each cycle
system.cpu0.iq.issued_per_cycle::2          181747147      9.26%     97.48% # Number of insts issued each cycle
system.cpu0.iq.issued_per_cycle::3           38113541      1.94%     99.43% # Number of insts issued each cycle
system.cpu0.iq.issued_per_cycle::4            8893957      0.45%     99.88% # Number of insts issued each cycle
system.cpu0.iq.issued_per_cycle::5            1113584      0.06%     99.93% # Number of insts issued each cycle
system.cpu0.iq.issued_per_cycle::6             759643      0.04%     99.97% # Number of insts issued each cycle
system.cpu0.iq.issued_per_cycle::7             356102      0.02%     99.99% # Number of insts issued each cycle
system.cpu0.iq.issued_per_cycle::8             160750      0.01%    100.00% # Number of insts issued each cycle
system.cpu0.iq.issued_per_cycle::overflows            0      0.00%    100.00% # Number of insts issued each cycle
system.cpu0.iq.issued_per_cycle::min_value            0                       # Number of insts issued each cycle
system.cpu0.iq.issued_per_cycle::max_value            8                       # Number of insts issued each cycle
system.cpu0.iq.issued_per_cycle::total     1963048633                       # Number of insts issued each cycle
system.cpu0.iq.rate                          0.529281                       # Inst issue rate
system.cpu0.iq.vec_alu_accesses                     0                       # Number of vector alu accesses
system.cpu0.iq.vec_inst_queue_reads                 0                       # Number of vector instruction queue reads
system.cpu0.iq.vec_inst_queue_wakeup_accesses            0                       # Number of vector instruction queue wakeup accesses
system.cpu0.iq.vec_inst_queue_writes                0                       # Number of vector instruction queue writes
system.cpu0.itb.accesses                            0                       # DTB accesses
system.cpu0.itb.hits                                0                       # DTB hits
system.cpu0.itb.misses                              0                       # DTB misses
system.cpu0.itb.read_accesses                       0                       # DTB read accesses
system.cpu0.itb.read_hits                           0                       # DTB read hits
system.cpu0.itb.read_misses                         0                       # DTB read misses
system.cpu0.itb.write_accesses                      0                       # DTB write accesses
system.cpu0.itb.write_hits                          0                       # DTB write hits
system.cpu0.itb.write_misses                        0                       # DTB write misses
system.cpu0.memDep0.conflictingLoads         31575551                       # Number of conflicting loads.
system.cpu0.memDep0.conflictingStores         5148065                       # Number of conflicting stores.
system.cpu0.memDep0.insertedLoads           358958170                       # Number of loads inserted to the mem dependence unit.
system.cpu0.memDep0.insertedStores          138576738                       # Number of stores inserted to the mem dependence unit.
system.cpu0.misc_regfile_reads                   1505                       # number of misc regfile reads
system.cpu0.misc_regfile_writes                    22                       # number of misc regfile writes
system.cpu0.numCycles                      2087346464                       # number of cpu cycles simulated
system.cpu0.numWorkItemsCompleted                   0                       # number of work items this cpu completed
system.cpu0.numWorkItemsStarted                     0                       # number of work items this cpu started
system.cpu0.quiesceCycles                     2949979                       # Total number of cycles that CPU has spent quiesced or waiting for an interrupt
system.cpu0.rename.BlockCycles              279188011                       # Number of cycles rename is blocking
system.cpu0.rename.CommittedMaps            670603589                       # Number of HB maps that are committed
system.cpu0.rename.IQFullEvents               9074339                       # Number of times rename has blocked due to IQ full
system.cpu0.rename.IdleCycles               850051441                       # Number of cycles rename is idle
system.cpu0.rename.LQFullEvents              14016577                       # Number of times rename has blocked due to LQ full
system.cpu0.rename.ROBFullEvents                60019                       # Number of times rename has blocked due to ROB full
system.cpu0.rename.RenameLookups           1415715531                       # Number of register rename lookups that rename has made
system.cpu0.rename.RenamedInsts            1157938012                       # Number of instructions processed by rename
system.cpu0.rename.RenamedOperands          742546036                       # Number of destination operands rename has renamed
system.cpu0.rename.RunCycles                785900420                       # Number of cycles rename is running
system.cpu0.rename.SQFullEvents              13883165                       # Number of times rename has blocked due to SQ full
system.cpu0.rename.SquashCycles               9584600                       # Number of cycles rename is squashing
system.cpu0.rename.UnblockCycles             38203768                       # Number of cycles rename is unblocking
system.cpu0.rename.UndoneMaps                71942442                       # Number of HB maps that are undone due to squashing
system.cpu0.rename.fp_rename_lookups               44                       # Number of floating rename lookups
system.cpu0.rename.int_rename_lookups      1415715487                       # Number of integer rename lookups
system.cpu0.rename.serializeStallCycles        120393                       # count of cycles rename stalled for serializing inst
system.cpu0.rename.serializingInsts              4712                       # count of serializing insts renamed
system.cpu0.rename.skidInsts                 20995213                       # count of insts added to the skid buffer
system.cpu0.rename.tempSerializingInsts          4665                       # count of temporary serializing insts renamed
system.cpu0.rob.rob_reads                  3063623779                       # The number of ROB reads
system.cpu0.rob.rob_writes                 2304852118                       # The number of ROB writes
system.cpu0.timesIdled                       26930031                       # Number of times that the entire CPU went into an idle state and unscheduled itself
system.cpu0.workload.numSyscalls                 1472                       # Number of system calls
system.cpu1.branchPred.BTBCorrect                   0                       # Number of correct BTB predictions (this stat may not work properly.
system.cpu1.branchPred.BTBHitPct            93.056021                       # BTB Hit Percentage
system.cpu1.branchPred.BTBHits                9795020                       # Number of BTB hits
system.cpu1.branchPred.BTBLookups            10525939                       # Number of BTB lookups
system.cpu1.branchPred.RASInCorrect                 0                       # Number of incorrect RAS predictions.
system.cpu1.branchPred.condIncorrect          1992690                       # Number of conditional branches incorrect
system.cpu1.branchPred.condPredicted         19186896                       # Number of conditional branches predicted
system.cpu1.branchPred.indirectHits            338799                       # Number of indirect target hits.
system.cpu1.branchPred.indirectLookups         684333                       # Number of indirect predictor lookups.
system.cpu1.branchPred.indirectMisses          345534                       # Number of indirect misses.
system.cpu1.branchPred.lookups               21083201                       # Number of BP lookups
system.cpu1.branchPred.usedRAS                      0                       # Number of times the RAS was used to get a target.
system.cpu1.branchPredindirectMispredicted         4782                       # Number of mispredicted indirect branches.
system.cpu1.commit.amos                       1811198                       # Number of atomic instructions committed
system.cpu1.commit.branchMispredicts          1166278                       # The number of times a branch was mispredicted
system.cpu1.commit.branches                  12201255                       # Number of branches committed
system.cpu1.commit.bw_lim_events              1271053                       # number cycles where commit BW limit reached
system.cpu1.commit.commitNonSpecStalls        5434269                       # The number of times commit has been forced to stall to communicate backwards
system.cpu1.commit.commitSquashedInsts       22653899                       # The number of squashed insts skipped by commit
system.cpu1.commit.committedInsts            55070745                       # Number of instructions committed
system.cpu1.commit.committedOps              56882122                       # Number of ops (including micro ops) committed
system.cpu1.commit.committed_per_cycle::samples    346300290                       # Number of insts commited each cycle
system.cpu1.commit.committed_per_cycle::mean     0.164257                       # Number of insts commited each cycle
system.cpu1.commit.committed_per_cycle::stdev     0.798701                       # Number of insts commited each cycle
system.cpu1.commit.committed_per_cycle::underflows            0      0.00%      0.00% # Number of insts commited each cycle
system.cpu1.commit.committed_per_cycle::0    322600359     93.16%     93.16% # Number of insts commited each cycle
system.cpu1.commit.committed_per_cycle::1     11835892      3.42%     96.57% # Number of insts commited each cycle
system.cpu1.commit.committed_per_cycle::2      3935735      1.14%     97.71% # Number of insts commited each cycle
system.cpu1.commit.committed_per_cycle::3      3649741      1.05%     98.76% # Number of insts commited each cycle
system.cpu1.commit.committed_per_cycle::4       907128      0.26%     99.03% # Number of insts commited each cycle
system.cpu1.commit.committed_per_cycle::5       306167      0.09%     99.11% # Number of insts commited each cycle
system.cpu1.commit.committed_per_cycle::6      1661739      0.48%     99.59% # Number of insts commited each cycle
system.cpu1.commit.committed_per_cycle::7       132476      0.04%     99.63% # Number of insts commited each cycle
system.cpu1.commit.committed_per_cycle::8      1271053      0.37%    100.00% # Number of insts commited each cycle
system.cpu1.commit.committed_per_cycle::overflows            0      0.00%    100.00% # Number of insts commited each cycle
system.cpu1.commit.committed_per_cycle::min_value            0                       # Number of insts commited each cycle
system.cpu1.commit.committed_per_cycle::max_value            8                       # Number of insts commited each cycle
system.cpu1.commit.committed_per_cycle::total    346300290                       # Number of insts commited each cycle
system.cpu1.commit.fp_insts                        12                       # Number of committed floating point instructions.
system.cpu1.commit.function_calls              502278                       # Number of function calls committed.
system.cpu1.commit.int_insts                 52968063                       # Number of committed integer instructions.
system.cpu1.commit.loads                     16124929                       # Number of loads committed
system.cpu1.commit.membars                    3622522                       # Number of memory barriers committed
system.cpu1.commit.op_class_0::No_OpClass      3622522      6.37%      6.37% # Class of committed instruction
system.cpu1.commit.op_class_0::IntAlu        32007251     56.27%     62.64% # Class of committed instruction
system.cpu1.commit.op_class_0::IntMult             43      0.00%     62.64% # Class of committed instruction
system.cpu1.commit.op_class_0::IntDiv              86      0.00%     62.64% # Class of committed instruction
system.cpu1.commit.op_class_0::FloatAdd             0      0.00%     62.64% # Class of committed instruction
system.cpu1.commit.op_class_0::FloatCmp             0      0.00%     62.64% # Class of committed instruction
system.cpu1.commit.op_class_0::FloatCvt             0      0.00%     62.64% # Class of committed instruction
system.cpu1.commit.op_class_0::FloatMult            0      0.00%     62.64% # Class of committed instruction
system.cpu1.commit.op_class_0::FloatMultAcc            0      0.00%     62.64% # Class of committed instruction
system.cpu1.commit.op_class_0::FloatDiv             0      0.00%     62.64% # Class of committed instruction
system.cpu1.commit.op_class_0::FloatMisc            0      0.00%     62.64% # Class of committed instruction
system.cpu1.commit.op_class_0::FloatSqrt            0      0.00%     62.64% # Class of committed instruction
system.cpu1.commit.op_class_0::SimdAdd              0      0.00%     62.64% # Class of committed instruction
system.cpu1.commit.op_class_0::SimdAddAcc            0      0.00%     62.64% # Class of committed instruction
system.cpu1.commit.op_class_0::SimdAlu              0      0.00%     62.64% # Class of committed instruction
system.cpu1.commit.op_class_0::SimdCmp              0      0.00%     62.64% # Class of committed instruction
system.cpu1.commit.op_class_0::SimdCvt              0      0.00%     62.64% # Class of committed instruction
system.cpu1.commit.op_class_0::SimdMisc             0      0.00%     62.64% # Class of committed instruction
system.cpu1.commit.op_class_0::SimdMult             0      0.00%     62.64% # Class of committed instruction
system.cpu1.commit.op_class_0::SimdMultAcc            0      0.00%     62.64% # Class of committed instruction
system.cpu1.commit.op_class_0::SimdShift            0      0.00%     62.64% # Class of committed instruction
system.cpu1.commit.op_class_0::SimdShiftAcc            0      0.00%     62.64% # Class of committed instruction
system.cpu1.commit.op_class_0::SimdDiv              0      0.00%     62.64% # Class of committed instruction
system.cpu1.commit.op_class_0::SimdSqrt             0      0.00%     62.64% # Class of committed instruction
system.cpu1.commit.op_class_0::SimdFloatAdd            0      0.00%     62.64% # Class of committed instruction
system.cpu1.commit.op_class_0::SimdFloatAlu            0      0.00%     62.64% # Class of committed instruction
system.cpu1.commit.op_class_0::SimdFloatCmp            0      0.00%     62.64% # Class of committed instruction
system.cpu1.commit.op_class_0::SimdFloatCvt            0      0.00%     62.64% # Class of committed instruction
system.cpu1.commit.op_class_0::SimdFloatDiv            0      0.00%     62.64% # Class of committed instruction
system.cpu1.commit.op_class_0::SimdFloatMisc            0      0.00%     62.64% # Class of committed instruction
system.cpu1.commit.op_class_0::SimdFloatMult            0      0.00%     62.64% # Class of committed instruction
system.cpu1.commit.op_class_0::SimdFloatMultAcc            0      0.00%     62.64% # Class of committed instruction
system.cpu1.commit.op_class_0::SimdFloatSqrt            0      0.00%     62.64% # Class of committed instruction
system.cpu1.commit.op_class_0::SimdReduceAdd            0      0.00%     62.64% # Class of committed instruction
system.cpu1.commit.op_class_0::SimdReduceAlu            0      0.00%     62.64% # Class of committed instruction
system.cpu1.commit.op_class_0::SimdReduceCmp            0      0.00%     62.64% # Class of committed instruction
system.cpu1.commit.op_class_0::SimdFloatReduceAdd            0      0.00%     62.64% # Class of committed instruction
system.cpu1.commit.op_class_0::SimdFloatReduceCmp            0      0.00%     62.64% # Class of committed instruction
system.cpu1.commit.op_class_0::SimdAes              0      0.00%     62.64% # Class of committed instruction
system.cpu1.commit.op_class_0::SimdAesMix            0      0.00%     62.64% # Class of committed instruction
system.cpu1.commit.op_class_0::SimdSha1Hash            0      0.00%     62.64% # Class of committed instruction
system.cpu1.commit.op_class_0::SimdSha1Hash2            0      0.00%     62.64% # Class of committed instruction
system.cpu1.commit.op_class_0::SimdSha256Hash            0      0.00%     62.64% # Class of committed instruction
system.cpu1.commit.op_class_0::SimdSha256Hash2            0      0.00%     62.64% # Class of committed instruction
system.cpu1.commit.op_class_0::SimdShaSigma2            0      0.00%     62.64% # Class of committed instruction
system.cpu1.commit.op_class_0::SimdShaSigma3            0      0.00%     62.64% # Class of committed instruction
system.cpu1.commit.op_class_0::SimdPredAlu            0      0.00%     62.64% # Class of committed instruction
system.cpu1.commit.op_class_0::MemRead       17936127     31.53%     94.17% # Class of committed instruction
system.cpu1.commit.op_class_0::MemWrite       3316081      5.83%    100.00% # Class of committed instruction
system.cpu1.commit.op_class_0::FloatMemRead            0      0.00%    100.00% # Class of committed instruction
system.cpu1.commit.op_class_0::FloatMemWrite           12      0.00%    100.00% # Class of committed instruction
system.cpu1.commit.op_class_0::IprAccess            0      0.00%    100.00% # Class of committed instruction
system.cpu1.commit.op_class_0::InstPrefetch            0      0.00%    100.00% # Class of committed instruction
system.cpu1.commit.op_class_0::total         56882122                       # Class of committed instruction
system.cpu1.commit.refs                      21252220                       # Number of memory references committed
system.cpu1.commit.swp_count                        0                       # Number of s/w prefetches committed
system.cpu1.commit.vec_insts                        0                       # Number of committed Vector instructions.
system.cpu1.committedInsts                   55070745                       # Number of Instructions Simulated
system.cpu1.committedOps                     56882122                       # Number of Ops (including micro ops) Simulated
system.cpu1.cpi                              6.359211                       # CPI: Cycles Per Instruction
system.cpu1.cpi_total                        6.359211                       # CPI: Total CPI of All Threads
system.cpu1.decode.BlockedCycles            302218081                       # Number of cycles decode is blocked
system.cpu1.decode.BranchMispred               832664                       # Number of times decode detected a branch misprediction
system.cpu1.decode.BranchResolved             8761621                       # Number of times decode resolved a branch
system.cpu1.decode.DecodedInsts              87550237                       # Number of instructions handled by decode
system.cpu1.decode.IdleCycles                13529028                       # Number of cycles decode is idle
system.cpu1.decode.RunCycles                 28611717                       # Number of cycles decode is running
system.cpu1.decode.SquashCycles               1166774                       # Number of cycles decode is squashing
system.cpu1.decode.SquashedInsts              1204870                       # Number of squashed instructions handled by decode
system.cpu1.decode.UnblockCycles              4386511                       # Number of cycles decode is unblocking
system.cpu1.dtb.accesses                            0                       # DTB accesses
system.cpu1.dtb.hits                                0                       # DTB hits
system.cpu1.dtb.misses                              0                       # DTB misses
system.cpu1.dtb.read_accesses                       0                       # DTB read accesses
system.cpu1.dtb.read_hits                           0                       # DTB read hits
system.cpu1.dtb.read_misses                         0                       # DTB read misses
system.cpu1.dtb.write_accesses                      0                       # DTB write accesses
system.cpu1.dtb.write_hits                          0                       # DTB write hits
system.cpu1.dtb.write_misses                        0                       # DTB write misses
system.cpu1.fetch.Branches                   21083201                       # Number of branches that fetch encountered
system.cpu1.fetch.CacheLines                 13276136                       # Number of cache lines fetched
system.cpu1.fetch.Cycles                    333230311                       # Number of cycles fetch has run and was not squashing or blocked
system.cpu1.fetch.IcacheSquashes                96567                       # Number of outstanding Icache misses that were squashed
system.cpu1.fetch.Insts                     102674245                       # Number of instructions fetch has processed
system.cpu1.fetch.MiscStallCycles                   1                       # Number of cycles fetch has spent waiting on interrupts, or bad addresses, or out of MSHRs
system.cpu1.fetch.SquashCycles                3986372                       # Number of cycles fetch has spent squashing
system.cpu1.fetch.branchRate                 0.060202                       # Number of branch fetches per cycle
system.cpu1.fetch.icacheStallCycles          14688613                       # Number of cycles fetch is stalled on an Icache miss
system.cpu1.fetch.predictedBranches          10133819                       # Number of branches that fetch has predicted taken
system.cpu1.fetch.rate                       0.293182                       # Number of inst fetches per cycle
system.cpu1.fetch.rateDist::samples         349912111                       # Number of instructions fetched each cycle (Total)
system.cpu1.fetch.rateDist::mean             0.304766                       # Number of instructions fetched each cycle (Total)
system.cpu1.fetch.rateDist::stdev            0.813503                       # Number of instructions fetched each cycle (Total)
system.cpu1.fetch.rateDist::underflows              0      0.00%      0.00% # Number of instructions fetched each cycle (Total)
system.cpu1.fetch.rateDist::0               289810342     82.82%     82.82% # Number of instructions fetched each cycle (Total)
system.cpu1.fetch.rateDist::1                32994261      9.43%     92.25% # Number of instructions fetched each cycle (Total)
system.cpu1.fetch.rateDist::2                16043240      4.58%     96.84% # Number of instructions fetched each cycle (Total)
system.cpu1.fetch.rateDist::3                 6449461      1.84%     98.68% # Number of instructions fetched each cycle (Total)
system.cpu1.fetch.rateDist::4                 1469510      0.42%     99.10% # Number of instructions fetched each cycle (Total)
system.cpu1.fetch.rateDist::5                 2548475      0.73%     99.83% # Number of instructions fetched each cycle (Total)
system.cpu1.fetch.rateDist::6                  589423      0.17%    100.00% # Number of instructions fetched each cycle (Total)
system.cpu1.fetch.rateDist::7                    4088      0.00%    100.00% # Number of instructions fetched each cycle (Total)
system.cpu1.fetch.rateDist::8                    3311      0.00%    100.00% # Number of instructions fetched each cycle (Total)
system.cpu1.fetch.rateDist::overflows               0      0.00%    100.00% # Number of instructions fetched each cycle (Total)
system.cpu1.fetch.rateDist::min_value               0                       # Number of instructions fetched each cycle (Total)
system.cpu1.fetch.rateDist::max_value               8                       # Number of instructions fetched each cycle (Total)
system.cpu1.fetch.rateDist::total           349912111                       # Number of instructions fetched each cycle (Total)
system.cpu1.fp_regfile_reads                       12                       # number of floating regfile reads
system.cpu1.idleCycles                         294370                       # Total number of cycles that the CPU has spent unscheduled due to idling
system.cpu1.iew.branchMispredicts             1228332                       # Number of branch mispredicts detected at execute
system.cpu1.iew.exec_branches                14774905                       # Number of branches executed
system.cpu1.iew.exec_nop                            0                       # number of nop insts executed
system.cpu1.iew.exec_rate                    0.184755                       # Inst execution rate
system.cpu1.iew.exec_refs                    22537792                       # number of memory reference insts executed
system.cpu1.iew.exec_stores                   5215789                       # Number of stores executed
system.cpu1.iew.exec_swp                            0                       # number of swp insts executed
system.cpu1.iew.iewBlockCycles              260892923                       # Number of cycles IEW is blocking
system.cpu1.iew.iewDispLoadInsts             22604734                       # Number of dispatched load instructions
system.cpu1.iew.iewDispNonSpecInsts           2712398                       # Number of dispatched non-speculative instructions
system.cpu1.iew.iewDispSquashedInsts          1727808                       # Number of squashed instructions skipped by dispatch
system.cpu1.iew.iewDispStoreInsts             7089265                       # Number of dispatched store instructions
system.cpu1.iew.iewDispatchedInsts           79526612                       # Number of instructions dispatched to IQ
system.cpu1.iew.iewExecLoadInsts             17322003                       # Number of load instructions executed
system.cpu1.iew.iewExecSquashedInsts           914468                       # Number of squashed instructions skipped in execute
system.cpu1.iew.iewExecutedInsts             64702458                       # Number of executed instructions
system.cpu1.iew.iewIQFullEvents               1588463                       # Number of times the IQ has become full, causing a stall
system.cpu1.iew.iewIdleCycles                       0                       # Number of cycles IEW is idle
system.cpu1.iew.iewLSQFullEvents              3245510                       # Number of times the LSQ has become full, causing a stall
system.cpu1.iew.iewSquashCycles               1166774                       # Number of cycles IEW is squashing
system.cpu1.iew.iewUnblockCycles              6896473                       # Number of cycles IEW is unblocking
system.cpu1.iew.lsq.thread0.blockedLoads            0                       # Number of blocked loads due to partial load-store forwarding
system.cpu1.iew.lsq.thread0.cacheBlocked        22870                       # Number of times an access to memory failed due to the cache being blocked
system.cpu1.iew.lsq.thread0.forwLoads          320570                       # Number of loads that had data forwarded from stores
system.cpu1.iew.lsq.thread0.ignoredResponses         7901                       # Number of memory responses ignored because the instruction is squashed
system.cpu1.iew.lsq.thread0.invAddrLoads            0                       # Number of loads ignored due to an invalid address
system.cpu1.iew.lsq.thread0.invAddrSwpfs            0                       # Number of software prefetches ignored due to an invalid address
system.cpu1.iew.lsq.thread0.memOrderViolation          545                       # Number of memory ordering violations
system.cpu1.iew.lsq.thread0.rescheduledLoads         2401                       # Number of loads that were rescheduled
system.cpu1.iew.lsq.thread0.squashedLoads      6479805                       # Number of loads squashed
system.cpu1.iew.lsq.thread0.squashedStores      1961974                       # Number of stores squashed
system.cpu1.iew.memOrderViolationEvents           545                       # Number of memory order violations
system.cpu1.iew.predictedNotTakenIncorrect       207419                       # Number of branches that were predicted not taken incorrectly
system.cpu1.iew.predictedTakenIncorrect       1020913                       # Number of branches that were predicted taken incorrectly
system.cpu1.iew.wb_consumers                 36969179                       # num instructions consuming a value
system.cpu1.iew.wb_count                     64282517                       # cumulative count of insts written-back
system.cpu1.iew.wb_fanout                    0.852995                       # average fanout of values written-back
system.cpu1.iew.wb_producers                 31534523                       # num instructions producing a value
system.cpu1.iew.wb_rate                      0.183556                       # insts written-back per cycle
system.cpu1.iew.wb_sent                      64300402                       # cumulative count of insts sent to commit
system.cpu1.int_regfile_reads                80813475                       # number of integer regfile reads
system.cpu1.int_regfile_writes               42780515                       # number of integer regfile writes
system.cpu1.ipc                              0.157252                       # IPC: Instructions Per Cycle
system.cpu1.ipc_total                        0.157252                       # IPC: Total IPC of All Threads
system.cpu1.iq.FU_type_0::No_OpClass          3622625      5.52%      5.52% # Type of FU issued
system.cpu1.iq.FU_type_0::IntAlu             39294126     59.88%     65.41% # Type of FU issued
system.cpu1.iq.FU_type_0::IntMult                  46      0.00%     65.41% # Type of FU issued
system.cpu1.iq.FU_type_0::IntDiv                   88      0.00%     65.41% # Type of FU issued
system.cpu1.iq.FU_type_0::FloatAdd                  0      0.00%     65.41% # Type of FU issued
system.cpu1.iq.FU_type_0::FloatCmp                  0      0.00%     65.41% # Type of FU issued
system.cpu1.iq.FU_type_0::FloatCvt                  0      0.00%     65.41% # Type of FU issued
system.cpu1.iq.FU_type_0::FloatMult                 0      0.00%     65.41% # Type of FU issued
system.cpu1.iq.FU_type_0::FloatMultAcc              0      0.00%     65.41% # Type of FU issued
system.cpu1.iq.FU_type_0::FloatDiv                  0      0.00%     65.41% # Type of FU issued
system.cpu1.iq.FU_type_0::FloatMisc                 0      0.00%     65.41% # Type of FU issued
system.cpu1.iq.FU_type_0::FloatSqrt                 0      0.00%     65.41% # Type of FU issued
system.cpu1.iq.FU_type_0::SimdAdd                   0      0.00%     65.41% # Type of FU issued
system.cpu1.iq.FU_type_0::SimdAddAcc                0      0.00%     65.41% # Type of FU issued
system.cpu1.iq.FU_type_0::SimdAlu                   0      0.00%     65.41% # Type of FU issued
system.cpu1.iq.FU_type_0::SimdCmp                   0      0.00%     65.41% # Type of FU issued
system.cpu1.iq.FU_type_0::SimdCvt                   0      0.00%     65.41% # Type of FU issued
system.cpu1.iq.FU_type_0::SimdMisc                  0      0.00%     65.41% # Type of FU issued
system.cpu1.iq.FU_type_0::SimdMult                  0      0.00%     65.41% # Type of FU issued
system.cpu1.iq.FU_type_0::SimdMultAcc               0      0.00%     65.41% # Type of FU issued
system.cpu1.iq.FU_type_0::SimdShift                 0      0.00%     65.41% # Type of FU issued
system.cpu1.iq.FU_type_0::SimdShiftAcc              0      0.00%     65.41% # Type of FU issued
system.cpu1.iq.FU_type_0::SimdDiv                   0      0.00%     65.41% # Type of FU issued
system.cpu1.iq.FU_type_0::SimdSqrt                  0      0.00%     65.41% # Type of FU issued
system.cpu1.iq.FU_type_0::SimdFloatAdd              0      0.00%     65.41% # Type of FU issued
system.cpu1.iq.FU_type_0::SimdFloatAlu              0      0.00%     65.41% # Type of FU issued
system.cpu1.iq.FU_type_0::SimdFloatCmp              0      0.00%     65.41% # Type of FU issued
system.cpu1.iq.FU_type_0::SimdFloatCvt              0      0.00%     65.41% # Type of FU issued
system.cpu1.iq.FU_type_0::SimdFloatDiv              0      0.00%     65.41% # Type of FU issued
system.cpu1.iq.FU_type_0::SimdFloatMisc             0      0.00%     65.41% # Type of FU issued
system.cpu1.iq.FU_type_0::SimdFloatMult             0      0.00%     65.41% # Type of FU issued
system.cpu1.iq.FU_type_0::SimdFloatMultAcc            0      0.00%     65.41% # Type of FU issued
system.cpu1.iq.FU_type_0::SimdFloatSqrt             0      0.00%     65.41% # Type of FU issued
system.cpu1.iq.FU_type_0::SimdReduceAdd             0      0.00%     65.41% # Type of FU issued
system.cpu1.iq.FU_type_0::SimdReduceAlu             0      0.00%     65.41% # Type of FU issued
system.cpu1.iq.FU_type_0::SimdReduceCmp             0      0.00%     65.41% # Type of FU issued
system.cpu1.iq.FU_type_0::SimdFloatReduceAdd            0      0.00%     65.41% # Type of FU issued
system.cpu1.iq.FU_type_0::SimdFloatReduceCmp            0      0.00%     65.41% # Type of FU issued
system.cpu1.iq.FU_type_0::SimdAes                   0      0.00%     65.41% # Type of FU issued
system.cpu1.iq.FU_type_0::SimdAesMix                0      0.00%     65.41% # Type of FU issued
system.cpu1.iq.FU_type_0::SimdSha1Hash              0      0.00%     65.41% # Type of FU issued
system.cpu1.iq.FU_type_0::SimdSha1Hash2             0      0.00%     65.41% # Type of FU issued
system.cpu1.iq.FU_type_0::SimdSha256Hash            0      0.00%     65.41% # Type of FU issued
system.cpu1.iq.FU_type_0::SimdSha256Hash2            0      0.00%     65.41% # Type of FU issued
system.cpu1.iq.FU_type_0::SimdShaSigma2             0      0.00%     65.41% # Type of FU issued
system.cpu1.iq.FU_type_0::SimdShaSigma3             0      0.00%     65.41% # Type of FU issued
system.cpu1.iq.FU_type_0::SimdPredAlu               0      0.00%     65.41% # Type of FU issued
system.cpu1.iq.FU_type_0::MemRead            19283605     29.39%     94.79% # Type of FU issued
system.cpu1.iq.FU_type_0::MemWrite            3416424      5.21%    100.00% # Type of FU issued
system.cpu1.iq.FU_type_0::FloatMemRead              0      0.00%    100.00% # Type of FU issued
system.cpu1.iq.FU_type_0::FloatMemWrite            12      0.00%    100.00% # Type of FU issued
system.cpu1.iq.FU_type_0::IprAccess                 0      0.00%    100.00% # Type of FU issued
system.cpu1.iq.FU_type_0::InstPrefetch              0      0.00%    100.00% # Type of FU issued
system.cpu1.iq.FU_type_0::total              65616926                       # Type of FU issued
system.cpu1.iq.fp_alu_accesses                     14                       # Number of floating point alu accesses
system.cpu1.iq.fp_inst_queue_reads                 26                       # Number of floating instruction queue reads
system.cpu1.iq.fp_inst_queue_wakeup_accesses           12                       # Number of floating instruction queue wakeup accesses
system.cpu1.iq.fp_inst_queue_writes                12                       # Number of floating instruction queue writes
system.cpu1.iq.fu_busy_cnt                    1915501                       # FU busy when requested
system.cpu1.iq.fu_busy_rate                  0.029192                       # FU busy rate (busy events/executed inst)
system.cpu1.iq.fu_full::No_OpClass                  0      0.00%      0.00% # attempts to use FU when none available
system.cpu1.iq.fu_full::IntAlu                 327214     17.08%     17.08% # attempts to use FU when none available
system.cpu1.iq.fu_full::IntMult                     0      0.00%     17.08% # attempts to use FU when none available
system.cpu1.iq.fu_full::IntDiv                      0      0.00%     17.08% # attempts to use FU when none available
system.cpu1.iq.fu_full::FloatAdd                    0      0.00%     17.08% # attempts to use FU when none available
system.cpu1.iq.fu_full::FloatCmp                    0      0.00%     17.08% # attempts to use FU when none available
system.cpu1.iq.fu_full::FloatCvt                    0      0.00%     17.08% # attempts to use FU when none available
system.cpu1.iq.fu_full::FloatMult                   0      0.00%     17.08% # attempts to use FU when none available
system.cpu1.iq.fu_full::FloatMultAcc                0      0.00%     17.08% # attempts to use FU when none available
system.cpu1.iq.fu_full::FloatDiv                    0      0.00%     17.08% # attempts to use FU when none available
system.cpu1.iq.fu_full::FloatMisc                   0      0.00%     17.08% # attempts to use FU when none available
system.cpu1.iq.fu_full::FloatSqrt                   0      0.00%     17.08% # attempts to use FU when none available
system.cpu1.iq.fu_full::SimdAdd                     0      0.00%     17.08% # attempts to use FU when none available
system.cpu1.iq.fu_full::SimdAddAcc                  0      0.00%     17.08% # attempts to use FU when none available
system.cpu1.iq.fu_full::SimdAlu                     0      0.00%     17.08% # attempts to use FU when none available
system.cpu1.iq.fu_full::SimdCmp                     0      0.00%     17.08% # attempts to use FU when none available
system.cpu1.iq.fu_full::SimdCvt                     0      0.00%     17.08% # attempts to use FU when none available
system.cpu1.iq.fu_full::SimdMisc                    0      0.00%     17.08% # attempts to use FU when none available
system.cpu1.iq.fu_full::SimdMult                    0      0.00%     17.08% # attempts to use FU when none available
system.cpu1.iq.fu_full::SimdMultAcc                 0      0.00%     17.08% # attempts to use FU when none available
system.cpu1.iq.fu_full::SimdShift                   0      0.00%     17.08% # attempts to use FU when none available
system.cpu1.iq.fu_full::SimdShiftAcc                0      0.00%     17.08% # attempts to use FU when none available
system.cpu1.iq.fu_full::SimdDiv                     0      0.00%     17.08% # attempts to use FU when none available
system.cpu1.iq.fu_full::SimdSqrt                    0      0.00%     17.08% # attempts to use FU when none available
system.cpu1.iq.fu_full::SimdFloatAdd                0      0.00%     17.08% # attempts to use FU when none available
system.cpu1.iq.fu_full::SimdFloatAlu                0      0.00%     17.08% # attempts to use FU when none available
system.cpu1.iq.fu_full::SimdFloatCmp                0      0.00%     17.08% # attempts to use FU when none available
system.cpu1.iq.fu_full::SimdFloatCvt                0      0.00%     17.08% # attempts to use FU when none available
system.cpu1.iq.fu_full::SimdFloatDiv                0      0.00%     17.08% # attempts to use FU when none available
system.cpu1.iq.fu_full::SimdFloatMisc               0      0.00%     17.08% # attempts to use FU when none available
system.cpu1.iq.fu_full::SimdFloatMult               0      0.00%     17.08% # attempts to use FU when none available
system.cpu1.iq.fu_full::SimdFloatMultAcc            0      0.00%     17.08% # attempts to use FU when none available
system.cpu1.iq.fu_full::SimdFloatSqrt               0      0.00%     17.08% # attempts to use FU when none available
system.cpu1.iq.fu_full::SimdReduceAdd               0      0.00%     17.08% # attempts to use FU when none available
system.cpu1.iq.fu_full::SimdReduceAlu               0      0.00%     17.08% # attempts to use FU when none available
system.cpu1.iq.fu_full::SimdReduceCmp               0      0.00%     17.08% # attempts to use FU when none available
system.cpu1.iq.fu_full::SimdFloatReduceAdd            0      0.00%     17.08% # attempts to use FU when none available
system.cpu1.iq.fu_full::SimdFloatReduceCmp            0      0.00%     17.08% # attempts to use FU when none available
system.cpu1.iq.fu_full::SimdAes                     0      0.00%     17.08% # attempts to use FU when none available
system.cpu1.iq.fu_full::SimdAesMix                  0      0.00%     17.08% # attempts to use FU when none available
system.cpu1.iq.fu_full::SimdSha1Hash                0      0.00%     17.08% # attempts to use FU when none available
system.cpu1.iq.fu_full::SimdSha1Hash2               0      0.00%     17.08% # attempts to use FU when none available
system.cpu1.iq.fu_full::SimdSha256Hash              0      0.00%     17.08% # attempts to use FU when none available
system.cpu1.iq.fu_full::SimdSha256Hash2             0      0.00%     17.08% # attempts to use FU when none available
system.cpu1.iq.fu_full::SimdShaSigma2               0      0.00%     17.08% # attempts to use FU when none available
system.cpu1.iq.fu_full::SimdShaSigma3               0      0.00%     17.08% # attempts to use FU when none available
system.cpu1.iq.fu_full::SimdPredAlu                 0      0.00%     17.08% # attempts to use FU when none available
system.cpu1.iq.fu_full::MemRead               1433899     74.86%     91.94% # attempts to use FU when none available
system.cpu1.iq.fu_full::MemWrite               154386      8.06%    100.00% # attempts to use FU when none available
[...]
system.cpu1.dcache.ReadReq_avg_mshr_miss_latency::.cpu1.data 93669.732078                       # average ReadReq mshr miss latency
system.cpu1.dcache.ReadReq_avg_mshr_miss_latency::total 93669.732078                       # average ReadReq mshr miss latency
system.cpu1.dcache.WriteReq_hits::.cpu1.data       382688                       # number of WriteReq hits
system.cpu1.dcache.WriteReq_hits::total        382688                       # number of WriteReq hits
system.cpu1.dcache.WriteReq_misses::.cpu1.data       385848                       # number of WriteReq misses
system.cpu1.dcache.WriteReq_misses::total       385848                       # number of WriteReq misses
system.cpu1.dcache.WriteReq_miss_latency::.cpu1.data  25603898496                       # number of WriteReq miss cycles
system.cpu1.dcache.WriteReq_miss_latency::total  25603898496                       # number of WriteReq miss cycles
system.cpu1.dcache.WriteReq_accesses::.cpu1.data       768536                       # number of WriteReq accesses(hits+misses)
system.cpu1.dcache.WriteReq_accesses::total       768536                       # number of WriteReq accesses(hits+misses)
system.cpu1.dcache.WriteReq_miss_rate::.cpu1.data     0.502056                       # miss rate for WriteReq accesses
system.cpu1.dcache.WriteReq_miss_rate::total     0.502056                       # miss rate for WriteReq accesses
system.cpu1.dcache.WriteReq_avg_miss_latency::.cpu1.data 66357.473658                       # average WriteReq miss latency
system.cpu1.dcache.WriteReq_avg_miss_latency::total 66357.473658                       # average WriteReq miss latency
system.cpu1.dcache.WriteReq_mshr_hits::.cpu1.data       346158                       # number of WriteReq MSHR hits
system.cpu1.dcache.WriteReq_mshr_hits::total       346158                       # number of WriteReq MSHR hits
system.cpu1.dcache.WriteReq_mshr_misses::.cpu1.data        39690                       # number of WriteReq MSHR misses
system.cpu1.dcache.WriteReq_mshr_misses::total        39690                       # number of WriteReq MSHR misses
system.cpu1.dcache.WriteReq_mshr_miss_latency::.cpu1.data   2393552498                       # number of WriteReq MSHR miss cycles
system.cpu1.dcache.WriteReq_mshr_miss_latency::total   2393552498                       # number of WriteReq MSHR miss cycles
system.cpu1.dcache.WriteReq_mshr_miss_rate::.cpu1.data     0.051644                       # mshr miss rate for WriteReq accesses
system.cpu1.dcache.WriteReq_mshr_miss_rate::total     0.051644                       # mshr miss rate for WriteReq accesses
system.cpu1.dcache.WriteReq_avg_mshr_miss_latency::.cpu1.data 60306.185387                       # average WriteReq mshr miss latency
system.cpu1.dcache.WriteReq_avg_mshr_miss_latency::total 60306.185387                       # average WriteReq mshr miss latency
system.cpu1.dcache.LoadLockedReq_hits::.cpu1.data       583866                       # number of LoadLockedReq hits
system.cpu1.dcache.LoadLockedReq_hits::total       583866                       # number of LoadLockedReq hits
system.cpu1.dcache.LoadLockedReq_misses::.cpu1.data         8150                       # number of LoadLockedReq misses
system.cpu1.dcache.LoadLockedReq_misses::total         8150                       # number of LoadLockedReq misses
system.cpu1.dcache.LoadLockedReq_miss_latency::.cpu1.data    215118500                       # number of LoadLockedReq miss cycles
system.cpu1.dcache.LoadLockedReq_miss_latency::total    215118500                       # number of LoadLockedReq miss cycles
system.cpu1.dcache.LoadLockedReq_accesses::.cpu1.data       592016                       # number of LoadLockedReq accesses(hits+misses)
system.cpu1.dcache.LoadLockedReq_accesses::total       592016                       # number of LoadLockedReq accesses(hits+misses)
system.cpu1.dcache.LoadLockedReq_miss_rate::.cpu1.data     0.013767                       # miss rate for LoadLockedReq accesses
system.cpu1.dcache.LoadLockedReq_miss_rate::total     0.013767                       # miss rate for LoadLockedReq accesses
system.cpu1.dcache.LoadLockedReq_avg_miss_latency::.cpu1.data 26394.907975                       # average LoadLockedReq miss latency
system.cpu1.dcache.LoadLockedReq_avg_miss_latency::total 26394.907975                       # average LoadLockedReq miss latency
system.cpu1.dcache.LoadLockedReq_mshr_hits::.cpu1.data          119                       # number of LoadLockedReq MSHR hits
system.cpu1.dcache.LoadLockedReq_mshr_hits::total          119                       # number of LoadLockedReq MSHR hits
system.cpu1.dcache.LoadLockedReq_mshr_misses::.cpu1.data         8031                       # number of LoadLockedReq MSHR misses
system.cpu1.dcache.LoadLockedReq_mshr_misses::total         8031                       # number of LoadLockedReq MSHR misses
system.cpu1.dcache.LoadLockedReq_mshr_miss_latency::.cpu1.data    197262500                       # number of LoadLockedReq MSHR miss cycles
system.cpu1.dcache.LoadLockedReq_mshr_miss_latency::total    197262500                       # number of LoadLockedReq MSHR miss cycles
system.cpu1.dcache.LoadLockedReq_mshr_miss_rate::.cpu1.data     0.013566                       # mshr miss rate for LoadLockedReq accesses
system.cpu1.dcache.LoadLockedReq_mshr_miss_rate::total     0.013566                       # mshr miss rate for LoadLockedReq accesses
system.cpu1.dcache.LoadLockedReq_avg_mshr_miss_latency::.cpu1.data 24562.632300                       # average LoadLockedReq mshr miss latency
system.cpu1.dcache.LoadLockedReq_avg_mshr_miss_latency::total 24562.632300                       # average LoadLockedReq mshr miss latency
system.cpu1.dcache.StoreCondReq_hits::.cpu1.data       591423                       # number of StoreCondReq hits
system.cpu1.dcache.StoreCondReq_hits::total       591423                       # number of StoreCondReq hits
system.cpu1.dcache.StoreCondReq_misses::.cpu1.data          363                       # number of StoreCondReq misses
system.cpu1.dcache.StoreCondReq_misses::total          363                       # number of StoreCondReq misses
system.cpu1.dcache.StoreCondReq_miss_latency::.cpu1.data      2774500                       # number of StoreCondReq miss cycles
system.cpu1.dcache.StoreCondReq_miss_latency::total      2774500                       # number of StoreCondReq miss cycles
system.cpu1.dcache.StoreCondReq_accesses::.cpu1.data       591786                       # number of StoreCondReq accesses(hits+misses)
system.cpu1.dcache.StoreCondReq_accesses::total       591786                       # number of StoreCondReq accesses(hits+misses)
system.cpu1.dcache.StoreCondReq_miss_rate::.cpu1.data     0.000613                       # miss rate for StoreCondReq accesses
system.cpu1.dcache.StoreCondReq_miss_rate::total     0.000613                       # miss rate for StoreCondReq accesses
system.cpu1.dcache.StoreCondReq_avg_miss_latency::.cpu1.data  7643.250689                       # average StoreCondReq miss latency
system.cpu1.dcache.StoreCondReq_avg_miss_latency::total  7643.250689                       # average StoreCondReq miss latency
system.cpu1.dcache.StoreCondReq_mshr_misses::.cpu1.data          363                       # number of StoreCondReq MSHR misses
system.cpu1.dcache.StoreCondReq_mshr_misses::total          363                       # number of StoreCondReq MSHR misses
system.cpu1.dcache.StoreCondReq_mshr_miss_latency::.cpu1.data      2418500                       # number of StoreCondReq MSHR miss cycles
system.cpu1.dcache.StoreCondReq_mshr_miss_latency::total      2418500                       # number of StoreCondReq MSHR miss cycles
system.cpu1.dcache.StoreCondReq_mshr_miss_rate::.cpu1.data     0.000613                       # mshr miss rate for StoreCondReq accesses
system.cpu1.dcache.StoreCondReq_mshr_miss_rate::total     0.000613                       # mshr miss rate for StoreCondReq accesses
system.cpu1.dcache.StoreCondReq_avg_mshr_miss_latency::.cpu1.data  6662.534435                       # average StoreCondReq mshr miss latency
system.cpu1.dcache.StoreCondReq_avg_mshr_miss_latency::total  6662.534435                       # average StoreCondReq mshr miss latency
system.cpu1.dcache.StoreCondFailReq_miss_latency::.cpu1.data       234500                       # number of StoreCondFailReq miss cycles
system.cpu1.dcache.StoreCondFailReq_miss_latency::total       234500                       # number of StoreCondFailReq miss cycles
system.cpu1.dcache.StoreCondFailReq_avg_miss_latency::.cpu1.data          inf                       # average StoreCondFailReq miss latency
system.cpu1.dcache.StoreCondFailReq_avg_miss_latency::total          inf                       # average StoreCondFailReq miss latency
system.cpu1.dcache.StoreCondFailReq_mshr_miss_latency::.cpu1.data       227500                       # number of StoreCondFailReq MSHR miss cycles
system.cpu1.dcache.StoreCondFailReq_mshr_miss_latency::total       227500                       # number of StoreCondFailReq MSHR miss cycles
system.cpu1.dcache.StoreCondFailReq_avg_mshr_miss_latency::.cpu1.data          inf                       # average StoreCondFailReq mshr miss latency
system.cpu1.dcache.StoreCondFailReq_avg_mshr_miss_latency::total          inf                       # average StoreCondFailReq mshr miss latency
system.cpu1.dcache.SwapReq_hits::.cpu1.data          512                       # number of SwapReq hits
system.cpu1.dcache.SwapReq_hits::total            512                       # number of SwapReq hits
system.cpu1.dcache.SwapReq_misses::.cpu1.data          525                       # number of SwapReq misses
system.cpu1.dcache.SwapReq_misses::total          525                       # number of SwapReq misses
system.cpu1.dcache.SwapReq_miss_latency::.cpu1.data      9489000                       # number of SwapReq miss cycles
system.cpu1.dcache.SwapReq_miss_latency::total      9489000                       # number of SwapReq miss cycles
system.cpu1.dcache.SwapReq_accesses::.cpu1.data         1037                       # number of SwapReq accesses(hits+misses)
system.cpu1.dcache.SwapReq_accesses::total         1037                       # number of SwapReq accesses(hits+misses)
system.cpu1.dcache.SwapReq_miss_rate::.cpu1.data     0.506268                       # miss rate for SwapReq accesses
system.cpu1.dcache.SwapReq_miss_rate::total     0.506268                       # miss rate for SwapReq accesses
system.cpu1.dcache.SwapReq_avg_miss_latency::.cpu1.data 18074.285714                       # average SwapReq miss latency
system.cpu1.dcache.SwapReq_avg_miss_latency::total 18074.285714                       # average SwapReq miss latency
system.cpu1.dcache.SwapReq_mshr_misses::.cpu1.data          525                       # number of SwapReq MSHR misses
system.cpu1.dcache.SwapReq_mshr_misses::total          525                       # number of SwapReq MSHR misses
system.cpu1.dcache.SwapReq_mshr_miss_latency::.cpu1.data      8964000                       # number of SwapReq MSHR miss cycles
system.cpu1.dcache.SwapReq_mshr_miss_latency::total      8964000                       # number of SwapReq MSHR miss cycles
system.cpu1.dcache.SwapReq_mshr_miss_rate::.cpu1.data     0.506268                       # mshr miss rate for SwapReq accesses
system.cpu1.dcache.SwapReq_mshr_miss_rate::total     0.506268                       # mshr miss rate for SwapReq accesses
system.cpu1.dcache.SwapReq_avg_mshr_miss_latency::.cpu1.data 17074.285714                       # average SwapReq mshr miss latency
system.cpu1.dcache.SwapReq_avg_mshr_miss_latency::total 17074.285714                       # average SwapReq mshr miss latency
system.cpu1.dcache.tags.pwrStateResidencyTicks::UNDEFINED 123751136500                       # Cumulative time (in ticks) in various power states
system.cpu1.dcache.tags.tagsinuse           31.818524                       # Cycle average of tags in use
system.cpu1.dcache.tags.total_refs           18340138                       # Total number of references to valid blocks.
system.cpu1.dcache.tags.sampled_refs          1165287                       # Sample count of references to valid blocks.
system.cpu1.dcache.tags.avg_refs            15.738730                       # Average number of references to valid blocks.
system.cpu1.dcache.tags.warmup_cycle                0                       # Cycle when the warmup percentage was hit.
system.cpu1.dcache.tags.occ_blocks::.cpu1.data    31.818524                       # Average occupied blocks per requestor
system.cpu1.dcache.tags.occ_percent::.cpu1.data     0.994329                       # Average percentage of cache occupancy
system.cpu1.dcache.tags.occ_percent::total     0.994329                       # Average percentage of cache occupancy
system.cpu1.dcache.tags.occ_task_id_blocks::1024           30                       # Occupied blocks per task id
system.cpu1.dcache.tags.age_task_id_blocks_1024::1           30                       # Occupied blocks per task id
system.cpu1.dcache.tags.occ_task_id_percent::1024     0.937500                       # Percentage of cache occupancy per task id
system.cpu1.dcache.tags.tag_accesses         42235091                       # Number of tag accesses
system.cpu1.dcache.tags.data_accesses        42235091                       # Number of data accesses
system.cpu_clk_domain.clock                       500                       # Clock period in ticks
system.tol2bus.pwrStateResidencyTicks::UNDEFINED 123751136500                       # Cumulative time (in ticks) in various power states
system.tol2bus.trans_dist::ReadResp           3213416                       # Transaction distribution
system.tol2bus.trans_dist::WritebackDirty       577494                       # Transaction distribution
system.tol2bus.trans_dist::WritebackClean      2985928                       # Transaction distribution
system.tol2bus.trans_dist::CleanEvict        10491255                       # Transaction distribution
system.tol2bus.trans_dist::HardPFReq         10662205                       # Transaction distribution
system.tol2bus.trans_dist::UpgradeReq             998                       # Transaction distribution
system.tol2bus.trans_dist::SCUpgradeReq          1450                       # Transaction distribution
system.tol2bus.trans_dist::UpgradeResp           2448                       # Transaction distribution
system.tol2bus.trans_dist::SCUpgradeFailReq            8                       # Transaction distribution
system.tol2bus.trans_dist::UpgradeFailResp            8                       # Transaction distribution
system.tol2bus.trans_dist::ReadExReq            92653                       # Transaction distribution
system.tol2bus.trans_dist::ReadExResp           92653                       # Transaction distribution
system.tol2bus.trans_dist::ReadCleanReq        225544                       # Transaction distribution
system.tol2bus.trans_dist::ReadSharedReq      2987872                       # Transaction distribution
system.tol2bus.trans_dist::InvalidateReq          599                       # Transaction distribution
system.tol2bus.trans_dist::InvalidateResp          599                       # Transaction distribution
system.tol2bus.pkt_count_system.cpu0.icache.mem_side::system.l2.cpu_side       662308                       # Packet count per connected master and slave (bytes)
system.tol2bus.pkt_count_system.cpu0.dcache.mem_side::system.l2.cpu_side      5747797                       # Packet count per connected master and slave (bytes)
system.tol2bus.pkt_count_system.cpu1.icache.mem_side::system.l2.cpu_side        14307                       # Packet count per connected master and slave (bytes)
system.tol2bus.pkt_count_system.cpu1.dcache.mem_side::system.l2.cpu_side      3493007                       # Packet count per connected master and slave (bytes)
system.tol2bus.pkt_count::total               9917419                       # Packet count per connected master and slave (bytes)
system.tol2bus.pkt_size_system.cpu0.icache.mem_side::system.l2.cpu_side     28258112                       # Cumulative packet size per connected master and slave (bytes)
system.tol2bus.pkt_size_system.cpu0.dcache.mem_side::system.l2.cpu_side    245043264                       # Cumulative packet size per connected master and slave (bytes)
system.tol2bus.pkt_size_system.cpu1.icache.mem_side::system.l2.cpu_side       610432                       # Cumulative packet size per connected master and slave (bytes)
system.tol2bus.pkt_size_system.cpu1.dcache.mem_side::system.l2.cpu_side    148915904                       # Cumulative packet size per connected master and slave (bytes)
system.tol2bus.pkt_size::total              422827712                       # Cumulative packet size per connected master and slave (bytes)
system.tol2bus.snoops                        21417711                       # Total snoops (count)
system.tol2bus.snoopTraffic                  16820224                       # Total snoop traffic (bytes)
system.tol2bus.snoop_fanout::samples         24730106                       # Request fanout histogram
system.tol2bus.snoop_fanout::mean            0.106134                       # Request fanout histogram
system.tol2bus.snoop_fanout::stdev           0.316074                       # Request fanout histogram
system.tol2bus.snoop_fanout::underflows             0      0.00%      0.00% # Request fanout histogram
system.tol2bus.snoop_fanout::0               22167638     89.64%     89.64% # Request fanout histogram
system.tol2bus.snoop_fanout::1                2500230     10.11%     99.75% # Request fanout histogram
system.tol2bus.snoop_fanout::2                  62238      0.25%    100.00% # Request fanout histogram
system.tol2bus.snoop_fanout::3                      0      0.00%    100.00% # Request fanout histogram
system.tol2bus.snoop_fanout::4                      0      0.00%    100.00% # Request fanout histogram
system.tol2bus.snoop_fanout::5                      0      0.00%    100.00% # Request fanout histogram
system.tol2bus.snoop_fanout::6                      0      0.00%    100.00% # Request fanout histogram
system.tol2bus.snoop_fanout::7                      0      0.00%    100.00% # Request fanout histogram
system.tol2bus.snoop_fanout::8                      0      0.00%    100.00% # Request fanout histogram
system.tol2bus.snoop_fanout::overflows              0      0.00%    100.00% # Request fanout histogram
system.tol2bus.snoop_fanout::min_value              0                       # Request fanout histogram
system.tol2bus.snoop_fanout::max_value              2                       # Request fanout histogram
system.tol2bus.snoop_fanout::total           24730106                       # Request fanout histogram
system.tol2bus.reqLayer0.occupancy         6624009365                       # Layer occupancy (ticks)
system.tol2bus.reqLayer0.utilization              5.4                       # Layer utilization (%)
system.tol2bus.respLayer1.occupancy        2875493106                       # Layer occupancy (ticks)
system.tol2bus.respLayer1.utilization             2.3                       # Layer utilization (%)
system.tol2bus.respLayer0.occupancy         331297230                       # Layer occupancy (ticks)
system.tol2bus.respLayer0.utilization             0.3                       # Layer utilization (%)
system.tol2bus.respLayer3.occupancy        1749124796                       # Layer occupancy (ticks)
system.tol2bus.respLayer3.utilization             1.4                       # Layer utilization (%)
system.tol2bus.respLayer2.occupancy           7185935                       # Layer occupancy (ticks)
system.tol2bus.respLayer2.utilization             0.0                       # Layer utilization (%)

---------- End Simulation Statistics   ----------
