
---------- Begin Simulation Statistics ----------
final_tick                               1345132027500                       # Number of ticks from beginning of simulation (restored from checkpoints and never reset)
host_inst_rate                                  59593                       # Simulator instruction rate (inst/s)
host_mem_usage                                 702224                       # Number of bytes of host memory used
host_op_rate                                    59767                       # Simulator op (including micro ops) rate (op/s)
host_seconds                                 24107.00                       # Real time elapsed on the host
host_tick_rate                               55798398                       # Simulator tick rate (ticks/s)
sim_freq                                 1000000000000                       # Frequency of simulated ticks
sim_insts                                  1436601096                       # Number of instructions simulated
sim_ops                                    1440804840                       # Number of ops (including micro ops) simulated
sim_seconds                                  1.345132                       # Number of seconds simulated
sim_ticks                                1345132027500                       # Number of ticks simulated
system.cpu0.branchPred.BTBCorrect                   0                       # Number of correct BTB predictions (this stat may not work properly.
system.cpu0.branchPred.BTBHitPct            87.177792                       # BTB Hit Percentage
system.cpu0.branchPred.BTBHits              185668584                       # Number of BTB hits
system.cpu0.branchPred.BTBLookups           212976930                       # Number of BTB lookups
system.cpu0.branchPred.RASInCorrect                 0                       # Number of incorrect RAS predictions.
system.cpu0.branchPred.condIncorrect         19962119                       # Number of conditional branches incorrect
system.cpu0.branchPred.condPredicted        276419176                       # Number of conditional branches predicted
system.cpu0.branchPred.indirectHits          21119764                       # Number of indirect target hits.
system.cpu0.branchPred.indirectLookups       22582227                       # Number of indirect predictor lookups.
system.cpu0.branchPred.indirectMisses         1462463                       # Number of indirect misses.
system.cpu0.branchPred.lookups              352487248                       # Number of BP lookups
system.cpu0.branchPred.usedRAS                      0                       # Number of times the RAS was used to get a target.
system.cpu0.branchPredindirectMispredicted      2187920                       # Number of mispredicted indirect branches.
system.cpu0.commit.amos                       2100253                       # Number of atomic instructions committed
system.cpu0.commit.branchMispredicts         10951953                       # The number of times a branch was mispredicted
system.cpu0.commit.branches                 329547237                       # Number of branches committed
system.cpu0.commit.bw_lim_events             33228393                       # number cycles where commit BW limit reached
system.cpu0.commit.commitNonSpecStalls        6309711                       # The number of times commit has been forced to stall to communicate backwards
system.cpu0.commit.commitSquashedInsts       63102003                       # The number of squashed insts skipped by commit
system.cpu0.commit.committedInsts          1316562977                       # Number of instructions committed
system.cpu0.commit.committedOps            1318666548                       # Number of ops (including micro ops) committed
system.cpu0.commit.committed_per_cycle::samples   2397409231                       # Number of insts commited each cycle
system.cpu0.commit.committed_per_cycle::mean     0.550038                       # Number of insts commited each cycle
system.cpu0.commit.committed_per_cycle::stdev     1.266967                       # Number of insts commited each cycle
system.cpu0.commit.committed_per_cycle::underflows            0      0.00%      0.00% # Number of insts commited each cycle
system.cpu0.commit.committed_per_cycle::0   1723756412     71.90%     71.90% # Number of insts commited each cycle
system.cpu0.commit.committed_per_cycle::1    414814422     17.30%     89.20% # Number of insts commited each cycle
system.cpu0.commit.committed_per_cycle::2    100973658      4.21%     93.42% # Number of insts commited each cycle
system.cpu0.commit.committed_per_cycle::3     86181750      3.59%     97.01% # Number of insts commited each cycle
system.cpu0.commit.committed_per_cycle::4     24940969      1.04%     98.05% # Number of insts commited each cycle
system.cpu0.commit.committed_per_cycle::5      5106367      0.21%     98.26% # Number of insts commited each cycle
system.cpu0.commit.committed_per_cycle::6      6614115      0.28%     98.54% # Number of insts commited each cycle
system.cpu0.commit.committed_per_cycle::7      1793145      0.07%     98.61% # Number of insts commited each cycle
system.cpu0.commit.committed_per_cycle::8     33228393      1.39%    100.00% # Number of insts commited each cycle
system.cpu0.commit.committed_per_cycle::overflows            0      0.00%    100.00% # Number of insts commited each cycle
system.cpu0.commit.committed_per_cycle::min_value            0                       # Number of insts commited each cycle
system.cpu0.commit.committed_per_cycle::max_value            8                       # Number of insts commited each cycle
system.cpu0.commit.committed_per_cycle::total   2397409231                       # Number of insts commited each cycle
system.cpu0.commit.fp_insts                        50                       # Number of committed floating point instructions.
system.cpu0.commit.function_calls            25143400                       # Number of function calls committed.
system.cpu0.commit.int_insts               1273934772                       # Number of committed integer instructions.
system.cpu0.commit.loads                    405171671                       # Number of loads committed
system.cpu0.commit.membars                    4203729                       # Number of memory barriers committed
system.cpu0.commit.op_class_0::No_OpClass      4203735      0.32%      0.32% # Class of committed instruction
system.cpu0.commit.op_class_0::IntAlu       742072365     56.27%     56.59% # Class of committed instruction
system.cpu0.commit.op_class_0::IntMult       11833021      0.90%     57.49% # Class of committed instruction
system.cpu0.commit.op_class_0::IntDiv         2099837      0.16%     57.65% # Class of committed instruction
system.cpu0.commit.op_class_0::FloatAdd             0      0.00%     57.65% # Class of committed instruction
system.cpu0.commit.op_class_0::FloatCmp             4      0.00%     57.65% # Class of committed instruction
system.cpu0.commit.op_class_0::FloatCvt            12      0.00%     57.65% # Class of committed instruction
system.cpu0.commit.op_class_0::FloatMult            0      0.00%     57.65% # Class of committed instruction
system.cpu0.commit.op_class_0::FloatMultAcc            0      0.00%     57.65% # Class of committed instruction
system.cpu0.commit.op_class_0::FloatDiv             2      0.00%     57.65% # Class of committed instruction
system.cpu0.commit.op_class_0::FloatMisc            4      0.00%     57.65% # Class of committed instruction
system.cpu0.commit.op_class_0::FloatSqrt            0      0.00%     57.65% # Class of committed instruction
system.cpu0.commit.op_class_0::SimdAdd              0      0.00%     57.65% # Class of committed instruction
system.cpu0.commit.op_class_0::SimdAddAcc            0      0.00%     57.65% # Class of committed instruction
system.cpu0.commit.op_class_0::SimdAlu              0      0.00%     57.65% # Class of committed instruction
system.cpu0.commit.op_class_0::SimdCmp              0      0.00%     57.65% # Class of committed instruction
system.cpu0.commit.op_class_0::SimdCvt              0      0.00%     57.65% # Class of committed instruction
system.cpu0.commit.op_class_0::SimdMisc             0      0.00%     57.65% # Class of committed instruction
system.cpu0.commit.op_class_0::SimdMult             0      0.00%     57.65% # Class of committed instruction
system.cpu0.commit.op_class_0::SimdMultAcc            0      0.00%     57.65% # Class of committed instruction
system.cpu0.commit.op_class_0::SimdShift            0      0.00%     57.65% # Class of committed instruction
system.cpu0.commit.op_class_0::SimdShiftAcc            0      0.00%     57.65% # Class of committed instruction
system.cpu0.commit.op_class_0::SimdDiv              0      0.00%     57.65% # Class of committed instruction
system.cpu0.commit.op_class_0::SimdSqrt             0      0.00%     57.65% # Class of committed instruction
system.cpu0.commit.op_class_0::SimdFloatAdd            0      0.00%     57.65% # Class of committed instruction
system.cpu0.commit.op_class_0::SimdFloatAlu            0      0.00%     57.65% # Class of committed instruction
system.cpu0.commit.op_class_0::SimdFloatCmp            0      0.00%     57.65% # Class of committed instruction
system.cpu0.commit.op_class_0::SimdFloatCvt            0      0.00%     57.65% # Class of committed instruction
system.cpu0.commit.op_class_0::SimdFloatDiv            0      0.00%     57.65% # Class of committed instruction
system.cpu0.commit.op_class_0::SimdFloatMisc            0      0.00%     57.65% # Class of committed instruction
system.cpu0.commit.op_class_0::SimdFloatMult            0      0.00%     57.65% # Class of committed instruction
system.cpu0.commit.op_class_0::SimdFloatMultAcc            0      0.00%     57.65% # Class of committed instruction
system.cpu0.commit.op_class_0::SimdFloatSqrt            0      0.00%     57.65% # Class of committed instruction
system.cpu0.commit.op_class_0::SimdReduceAdd            0      0.00%     57.65% # Class of committed instruction
system.cpu0.commit.op_class_0::SimdReduceAlu            0      0.00%     57.65% # Class of committed instruction
system.cpu0.commit.op_class_0::SimdReduceCmp            0      0.00%     57.65% # Class of committed instruction
system.cpu0.commit.op_class_0::SimdFloatReduceAdd            0      0.00%     57.65% # Class of committed instruction
system.cpu0.commit.op_class_0::SimdFloatReduceCmp            0      0.00%     57.65% # Class of committed instruction
system.cpu0.commit.op_class_0::SimdAes              0      0.00%     57.65% # Class of committed instruction
system.cpu0.commit.op_class_0::SimdAesMix            0      0.00%     57.65% # Class of committed instruction
system.cpu0.commit.op_class_0::SimdSha1Hash            0      0.00%     57.65% # Class of committed instruction
system.cpu0.commit.op_class_0::SimdSha1Hash2            0      0.00%     57.65% # Class of committed instruction
system.cpu0.commit.op_class_0::SimdSha256Hash            0      0.00%     57.65% # Class of committed instruction
system.cpu0.commit.op_class_0::SimdSha256Hash2            0      0.00%     57.65% # Class of committed instruction
system.cpu0.commit.op_class_0::SimdShaSigma2            0      0.00%     57.65% # Class of committed instruction
system.cpu0.commit.op_class_0::SimdShaSigma3            0      0.00%     57.65% # Class of committed instruction
system.cpu0.commit.op_class_0::SimdPredAlu            0      0.00%     57.65% # Class of committed instruction
system.cpu0.commit.op_class_0::MemRead      407271916     30.89%     88.53% # Class of committed instruction
system.cpu0.commit.op_class_0::MemWrite     151185624     11.47%    100.00% # Class of committed instruction
system.cpu0.commit.op_class_0::FloatMemRead            8      0.00%    100.00% # Class of committed instruction
system.cpu0.commit.op_class_0::FloatMemWrite           20      0.00%    100.00% # Class of committed instruction
system.cpu0.commit.op_class_0::IprAccess            0      0.00%    100.00% # Class of committed instruction
system.cpu0.commit.op_class_0::InstPrefetch            0      0.00%    100.00% # Class of committed instruction
system.cpu0.commit.op_class_0::total       1318666548                       # Class of committed instruction
system.cpu0.commit.refs                     558457568                       # Number of memory references committed
system.cpu0.commit.swp_count                        0                       # Number of s/w prefetches committed
system.cpu0.commit.vec_insts                        0                       # Number of committed Vector instructions.
system.cpu0.committedInsts                 1316562977                       # Number of Instructions Simulated
system.cpu0.committedOps                   1318666548                       # Number of Ops (including micro ops) Simulated
system.cpu0.cpi                              2.036511                       # CPI: Cycles Per Instruction
system.cpu0.cpi_total                        2.036511                       # CPI: Total CPI of All Threads
system.cpu0.decode.BlockedCycles            496367892                       # Number of cycles decode is blocked
system.cpu0.decode.BranchMispred              9064219                       # Number of times decode detected a branch misprediction
system.cpu0.decode.BranchResolved           180942589                       # Number of times decode resolved a branch
system.cpu0.decode.DecodedInsts            1415823827                       # Number of instructions handled by decode
system.cpu0.decode.IdleCycles               927750589                       # Number of cycles decode is idle
system.cpu0.decode.RunCycles                971006883                       # Number of cycles decode is running
system.cpu0.decode.SquashCycles              10963172                       # Number of cycles decode is squashing
system.cpu0.decode.SquashedInsts             13275308                       # Number of squashed instructions handled by decode
system.cpu0.decode.UnblockCycles              6591086                       # Number of cycles decode is unblocking
system.cpu0.dtb.accesses                            0                       # DTB accesses
system.cpu0.dtb.hits                                0                       # DTB hits
system.cpu0.dtb.misses                              0                       # DTB misses
system.cpu0.dtb.read_accesses                       0                       # DTB read accesses
system.cpu0.dtb.read_hits                           0                       # DTB read hits
system.cpu0.dtb.read_misses                         0                       # DTB read misses
system.cpu0.dtb.write_accesses                      0                       # DTB write accesses
system.cpu0.dtb.write_hits                          0                       # DTB write hits
system.cpu0.dtb.write_misses                        0                       # DTB write misses
system.cpu0.fetch.Branches                  352487248                       # Number of branches that fetch encountered
system.cpu0.fetch.CacheLines                240345018                       # Number of cache lines fetched
system.cpu0.fetch.Cycles                   1473628075                       # Number of cycles fetch has run and was not squashing or blocked
system.cpu0.fetch.IcacheSquashes              5222185                       # Number of outstanding Icache misses that were squashed
system.cpu0.fetch.IcacheWaitRetryStallCycles          110                       # Number of stall cycles due to full MSHR
system.cpu0.fetch.Insts                    1442506915                       # Number of instructions fetch has processed
system.cpu0.fetch.MiscStallCycles                  22                       # Number of cycles fetch has spent waiting on interrupts, or bad addresses, or out of MSHRs
system.cpu0.fetch.PendingTrapStallCycles            6                       # Number of stall cycles due to pending traps
system.cpu0.fetch.SquashCycles               39946678                       # Number of cycles fetch has spent squashing
system.cpu0.fetch.branchRate                 0.131466                       # Number of branch fetches per cycle
system.cpu0.fetch.icacheStallCycles         919078070                       # Number of cycles fetch is stalled on an Icache miss
system.cpu0.fetch.predictedBranches         206788348                       # Number of branches that fetch has predicted taken
system.cpu0.fetch.rate                       0.538009                       # Number of inst fetches per cycle
system.cpu0.fetch.rateDist::samples        2412679622                       # Number of instructions fetched each cycle (Total)
system.cpu0.fetch.rateDist::mean             0.598758                       # Number of instructions fetched each cycle (Total)
system.cpu0.fetch.rateDist::stdev            0.886572                       # Number of instructions fetched each cycle (Total)
system.cpu0.fetch.rateDist::underflows              0      0.00%      0.00% # Number of instructions fetched each cycle (Total)
system.cpu0.fetch.rateDist::0              1387659550     57.52%     57.52% # Number of instructions fetched each cycle (Total)
system.cpu0.fetch.rateDist::1               762986268     31.62%     89.14% # Number of instructions fetched each cycle (Total)
system.cpu0.fetch.rateDist::2               146904930      6.09%     95.23% # Number of instructions fetched each cycle (Total)
system.cpu0.fetch.rateDist::3                92332175      3.83%     99.06% # Number of instructions fetched each cycle (Total)
system.cpu0.fetch.rateDist::4                13847543      0.57%     99.63% # Number of instructions fetched each cycle (Total)
system.cpu0.fetch.rateDist::5                 4624620      0.19%     99.82% # Number of instructions fetched each cycle (Total)
system.cpu0.fetch.rateDist::6                   95227      0.00%     99.82% # Number of instructions fetched each cycle (Total)
system.cpu0.fetch.rateDist::7                 2100880      0.09%     99.91% # Number of instructions fetched each cycle (Total)
system.cpu0.fetch.rateDist::8                 2128429      0.09%    100.00% # Number of instructions fetched each cycle (Total)
system.cpu0.fetch.rateDist::overflows               0      0.00%    100.00% # Number of instructions fetched each cycle (Total)
system.cpu0.fetch.rateDist::min_value               0                       # Number of instructions fetched each cycle (Total)
system.cpu0.fetch.rateDist::max_value               8                       # Number of instructions fetched each cycle (Total)
system.cpu0.fetch.rateDist::total          2412679622                       # Number of instructions fetched each cycle (Total)
system.cpu0.fp_regfile_reads                       44                       # number of floating regfile reads
system.cpu0.fp_regfile_writes                      22                       # number of floating regfile writes
system.cpu0.idleCycles                      268515512                       # Total number of cycles that the CPU has spent unscheduled due to idling
system.cpu0.iew.branchMispredicts            11073766                       # Number of branch mispredicts detected at execute
system.cpu0.iew.exec_branches               335231782                       # Number of branches executed
system.cpu0.iew.exec_nop                            0                       # number of nop insts executed
system.cpu0.iew.exec_rate                    0.509906                       # Inst execution rate
system.cpu0.iew.exec_refs                   590692412                       # number of memory reference insts executed
system.cpu0.iew.exec_stores                 155458377                       # Number of stores executed
system.cpu0.iew.exec_swp                            0                       # number of swp insts executed
system.cpu0.iew.iewBlockCycles              376167623                       # Number of cycles IEW is blocking
system.cpu0.iew.iewDispLoadInsts            436374918                       # Number of dispatched load instructions
system.cpu0.iew.iewDispNonSpecInsts           2106465                       # Number of dispatched non-speculative instructions
system.cpu0.iew.iewDispSquashedInsts          9474148                       # Number of squashed instructions skipped by dispatch
system.cpu0.iew.iewDispStoreInsts           156177356                       # Number of dispatched store instructions
system.cpu0.iew.iewDispatchedInsts         1381697040                       # Number of instructions dispatched to IQ
system.cpu0.iew.iewExecLoadInsts            435234035                       # Number of load instructions executed
system.cpu0.iew.iewExecSquashedInsts          8239981                       # Number of squashed instructions skipped in execute
system.cpu0.iew.iewExecutedInsts           1367157593                       # Number of executed instructions
system.cpu0.iew.iewIQFullEvents               1601590                       # Number of times the IQ has become full, causing a stall
system.cpu0.iew.iewIdleCycles                       0                       # Number of cycles IEW is idle
system.cpu0.iew.iewLSQFullEvents             14883313                       # Number of times the LSQ has become full, causing a stall
system.cpu0.iew.iewSquashCycles              10963172                       # Number of cycles IEW is squashing
system.cpu0.iew.iewUnblockCycles             19060810                       # Number of cycles IEW is unblocking
system.cpu0.iew.lsq.thread0.blockedLoads            0                       # Number of blocked loads due to partial load-store forwarding
system.cpu0.iew.lsq.thread0.cacheBlocked       315835                       # Number of times an access to memory failed due to the cache being blocked
system.cpu0.iew.lsq.thread0.forwLoads        25259381                       # Number of loads that had data forwarded from stores
system.cpu0.iew.lsq.thread0.ignoredResponses        75436                       # Number of memory responses ignored because the instruction is squashed
system.cpu0.iew.lsq.thread0.invAddrLoads            0                       # Number of loads ignored due to an invalid address
system.cpu0.iew.lsq.thread0.invAddrSwpfs            0                       # Number of software prefetches ignored due to an invalid address
system.cpu0.iew.lsq.thread0.memOrderViolation        11030                       # Number of memory ordering violations
system.cpu0.iew.lsq.thread0.rescheduledLoads      4450000                       # Number of loads that were rescheduled
system.cpu0.iew.lsq.thread0.squashedLoads     31203247                       # Number of loads squashed
system.cpu0.iew.lsq.thread0.squashedStores      2891448                       # Number of stores squashed
system.cpu0.iew.memOrderViolationEvents         11030                       # Number of memory order violations
system.cpu0.iew.predictedNotTakenIncorrect       768929                       # Number of branches that were predicted not taken incorrectly
system.cpu0.iew.predictedTakenIncorrect      10304837                       # Number of branches that were predicted taken incorrectly
system.cpu0.iew.wb_consumers                623179274                       # num instructions consuming a value
system.cpu0.iew.wb_count                   1353281657                       # cumulative count of insts written-back
system.cpu0.iew.wb_fanout                    0.827731                       # average fanout of values written-back
system.cpu0.iew.wb_producers                515824887                       # num instructions producing a value
system.cpu0.iew.wb_rate                      0.504731                       # insts written-back per cycle
system.cpu0.iew.wb_sent                    1353441896                       # cumulative count of insts sent to commit
system.cpu0.int_regfile_reads              1678782318                       # number of integer regfile reads
system.cpu0.int_regfile_writes              872667577                       # number of integer regfile writes
system.cpu0.ipc                              0.491036                       # IPC: Instructions Per Cycle
system.cpu0.ipc_total                        0.491036                       # IPC: Total IPC of All Threads
system.cpu0.iq.FU_type_0::No_OpClass          4205631      0.31%      0.31% # Type of FU issued
system.cpu0.iq.FU_type_0::IntAlu            763011297     55.48%     55.78% # Type of FU issued
system.cpu0.iq.FU_type_0::IntMult            11848545      0.86%     56.64% # Type of FU issued
system.cpu0.iq.FU_type_0::IntDiv              2100409      0.15%     56.80% # Type of FU issued
system.cpu0.iq.FU_type_0::FloatAdd                  0      0.00%     56.80% # Type of FU issued
system.cpu0.iq.FU_type_0::FloatCmp                  4      0.00%     56.80% # Type of FU issued
system.cpu0.iq.FU_type_0::FloatCvt                 12      0.00%     56.80% # Type of FU issued
system.cpu0.iq.FU_type_0::FloatMult                 0      0.00%     56.80% # Type of FU issued
system.cpu0.iq.FU_type_0::FloatMultAcc              0      0.00%     56.80% # Type of FU issued
system.cpu0.iq.FU_type_0::FloatDiv                  2      0.00%     56.80% # Type of FU issued
system.cpu0.iq.FU_type_0::FloatMisc                 4      0.00%     56.80% # Type of FU issued
system.cpu0.iq.FU_type_0::FloatSqrt                 0      0.00%     56.80% # Type of FU issued
system.cpu0.iq.FU_type_0::SimdAdd                   0      0.00%     56.80% # Type of FU issued
system.cpu0.iq.FU_type_0::SimdAddAcc                0      0.00%     56.80% # Type of FU issued
system.cpu0.iq.FU_type_0::SimdAlu                   0      0.00%     56.80% # Type of FU issued
system.cpu0.iq.FU_type_0::SimdCmp                   0      0.00%     56.80% # Type of FU issued
system.cpu0.iq.FU_type_0::SimdCvt                   0      0.00%     56.80% # Type of FU issued
system.cpu0.iq.FU_type_0::SimdMisc                  0      0.00%     56.80% # Type of FU issued
system.cpu0.iq.FU_type_0::SimdMult                  0      0.00%     56.80% # Type of FU issued
system.cpu0.iq.FU_type_0::SimdMultAcc               0      0.00%     56.80% # Type of FU issued
system.cpu0.iq.FU_type_0::SimdShift                 0      0.00%     56.80% # Type of FU issued
system.cpu0.iq.FU_type_0::SimdShiftAcc              0      0.00%     56.80% # Type of FU issued
system.cpu0.iq.FU_type_0::SimdDiv                   0      0.00%     56.80% # Type of FU issued
system.cpu0.iq.FU_type_0::SimdSqrt                  0      0.00%     56.80% # Type of FU issued
system.cpu0.iq.FU_type_0::SimdFloatAdd              0      0.00%     56.80% # Type of FU issued
system.cpu0.iq.FU_type_0::SimdFloatAlu              0      0.00%     56.80% # Type of FU issued
system.cpu0.iq.FU_type_0::SimdFloatCmp              0      0.00%     56.80% # Type of FU issued
system.cpu0.iq.FU_type_0::SimdFloatCvt              0      0.00%     56.80% # Type of FU issued
system.cpu0.iq.FU_type_0::SimdFloatDiv              0      0.00%     56.80% # Type of FU issued
system.cpu0.iq.FU_type_0::SimdFloatMisc             0      0.00%     56.80% # Type of FU issued
system.cpu0.iq.FU_type_0::SimdFloatMult             0      0.00%     56.80% # Type of FU issued
system.cpu0.iq.FU_type_0::SimdFloatMultAcc            0      0.00%     56.80% # Type of FU issued
system.cpu0.iq.FU_type_0::SimdFloatSqrt             0      0.00%     56.80% # Type of FU issued
system.cpu0.iq.FU_type_0::SimdReduceAdd             0      0.00%     56.80% # Type of FU issued
system.cpu0.iq.FU_type_0::SimdReduceAlu             0      0.00%     56.80% # Type of FU issued
system.cpu0.iq.FU_type_0::SimdReduceCmp             0      0.00%     56.80% # Type of FU issued
system.cpu0.iq.FU_type_0::SimdFloatReduceAdd            0      0.00%     56.80% # Type of FU issued
system.cpu0.iq.FU_type_0::SimdFloatReduceCmp            0      0.00%     56.80% # Type of FU issued
system.cpu0.iq.FU_type_0::SimdAes                   0      0.00%     56.80% # Type of FU issued
system.cpu0.iq.FU_type_0::SimdAesMix                0      0.00%     56.80% # Type of FU issued
system.cpu0.iq.FU_type_0::SimdSha1Hash              0      0.00%     56.80% # Type of FU issued
system.cpu0.iq.FU_type_0::SimdSha1Hash2             0      0.00%     56.80% # Type of FU issued
system.cpu0.iq.FU_type_0::SimdSha256Hash            0      0.00%     56.80% # Type of FU issued
system.cpu0.iq.FU_type_0::SimdSha256Hash2            0      0.00%     56.80% # Type of FU issued
system.cpu0.iq.FU_type_0::SimdShaSigma2             0      0.00%     56.80% # Type of FU issued
system.cpu0.iq.FU_type_0::SimdShaSigma3             0      0.00%     56.80% # Type of FU issued
system.cpu0.iq.FU_type_0::SimdPredAlu               0      0.00%     56.80% # Type of FU issued
system.cpu0.iq.FU_type_0::MemRead           440646954     32.04%     88.83% # Type of FU issued
system.cpu0.iq.FU_type_0::MemWrite          153584689     11.17%    100.00% # Type of FU issued
system.cpu0.iq.FU_type_0::FloatMemRead              8      0.00%    100.00% # Type of FU issued
system.cpu0.iq.FU_type_0::FloatMemWrite            20      0.00%    100.00% # Type of FU issued
system.cpu0.iq.FU_type_0::IprAccess                 0      0.00%    100.00% # Type of FU issued
system.cpu0.iq.FU_type_0::InstPrefetch              0      0.00%    100.00% # Type of FU issued
system.cpu0.iq.FU_type_0::total            1375397575                       # Type of FU issued
system.cpu0.iq.fp_alu_accesses                     52                       # Number of floating point alu accesses
system.cpu0.iq.fp_inst_queue_reads                102                       # Number of floating instruction queue reads
system.cpu0.iq.fp_inst_queue_wakeup_accesses           50                       # Number of floating instruction queue wakeup accesses
system.cpu0.iq.fp_inst_queue_writes                50                       # Number of floating instruction queue writes
system.cpu0.iq.fu_busy_cnt                    3396925                       # FU busy when requested
system.cpu0.iq.fu_busy_rate                  0.002470                       # FU busy rate (busy events/executed inst)
system.cpu0.iq.fu_full::No_OpClass                  0      0.00%      0.00% # attempts to use FU when none available
system.cpu0.iq.fu_full::IntAlu                 737894     21.72%     21.72% # attempts to use FU when none available
system.cpu0.iq.fu_full::IntMult                     0      0.00%     21.72% # attempts to use FU when none available
system.cpu0.iq.fu_full::IntDiv                      0      0.00%     21.72% # attempts to use FU when none available
system.cpu0.iq.fu_full::FloatAdd                    0      0.00%     21.72% # attempts to use FU when none available
system.cpu0.iq.fu_full::FloatCmp                    0      0.00%     21.72% # attempts to use FU when none available
system.cpu0.iq.fu_full::FloatCvt                    0      0.00%     21.72% # attempts to use FU when none available
system.cpu0.iq.fu_full::FloatMult                   0      0.00%     21.72% # attempts to use FU when none available
system.cpu0.iq.fu_full::FloatMultAcc                0      0.00%     21.72% # attempts to use FU when none available
system.cpu0.iq.fu_full::FloatDiv                    0      0.00%     21.72% # attempts to use FU when none available
system.cpu0.iq.fu_full::FloatMisc                   0      0.00%     21.72% # attempts to use FU when none available
system.cpu0.iq.fu_full::FloatSqrt                   0      0.00%     21.72% # attempts to use FU when none available
system.cpu0.iq.fu_full::SimdAdd                     0      0.00%     21.72% # attempts to use FU when none available
system.cpu0.iq.fu_full::SimdAddAcc                  0      0.00%     21.72% # attempts to use FU when none available
system.cpu0.iq.fu_full::SimdAlu                     0      0.00%     21.72% # attempts to use FU when none available
system.cpu0.iq.fu_full::SimdCmp                     0      0.00%     21.72% # attempts to use FU when none available
system.cpu0.iq.fu_full::SimdCvt                     0      0.00%     21.72% # attempts to use FU when none available
system.cpu0.iq.fu_full::SimdMisc                    0      0.00%     21.72% # attempts to use FU when none available
system.cpu0.iq.fu_full::SimdMult                    0      0.00%     21.72% # attempts to use FU when none available
system.cpu0.iq.fu_full::SimdMultAcc                 0      0.00%     21.72% # attempts to use FU when none available
system.cpu0.iq.fu_full::SimdShift                   0      0.00%     21.72% # attempts to use FU when none available
system.cpu0.iq.fu_full::SimdShiftAcc                0      0.00%     21.72% # attempts to use FU when none available
system.cpu0.iq.fu_full::SimdDiv                     0      0.00%     21.72% # attempts to use FU when none available
system.cpu0.iq.fu_full::SimdSqrt                    0      0.00%     21.72% # attempts to use FU when none available
system.cpu0.iq.fu_full::SimdFloatAdd                0      0.00%     21.72% # attempts to use FU when none available
system.cpu0.iq.fu_full::SimdFloatAlu                0      0.00%     21.72% # attempts to use FU when none available
system.cpu0.iq.fu_full::SimdFloatCmp                0      0.00%     21.72% # attempts to use FU when none available
system.cpu0.iq.fu_full::SimdFloatCvt                0      0.00%     21.72% # attempts to use FU when none available
system.cpu0.iq.fu_full::SimdFloatDiv                0      0.00%     21.72% # attempts to use FU when none available
system.cpu0.iq.fu_full::SimdFloatMisc               0      0.00%     21.72% # attempts to use FU when none available
system.cpu0.iq.fu_full::SimdFloatMult               0      0.00%     21.72% # attempts to use FU when none available
system.cpu0.iq.fu_full::SimdFloatMultAcc            0      0.00%     21.72% # attempts to use FU when none available
system.cpu0.iq.fu_full::SimdFloatSqrt               0      0.00%     21.72% # attempts to use FU when none available
system.cpu0.iq.fu_full::SimdReduceAdd               0      0.00%     21.72% # attempts to use FU when none available
system.cpu0.iq.fu_full::SimdReduceAlu               0      0.00%     21.72% # attempts to use FU when none available
system.cpu0.iq.fu_full::SimdReduceCmp               0      0.00%     21.72% # attempts to use FU when none available
system.cpu0.iq.fu_full::SimdFloatReduceAdd            0      0.00%     21.72% # attempts to use FU when none available
system.cpu0.iq.fu_full::SimdFloatReduceCmp            0      0.00%     21.72% # attempts to use FU when none available
system.cpu0.iq.fu_full::SimdAes                     0      0.00%     21.72% # attempts to use FU when none available
system.cpu0.iq.fu_full::SimdAesMix                  0      0.00%     21.72% # attempts to use FU when none available
system.cpu0.iq.fu_full::SimdSha1Hash                0      0.00%     21.72% # attempts to use FU when none available
system.cpu0.iq.fu_full::SimdSha1Hash2               0      0.00%     21.72% # attempts to use FU when none available
system.cpu0.iq.fu_full::SimdSha256Hash              0      0.00%     21.72% # attempts to use FU when none available
system.cpu0.iq.fu_full::SimdSha256Hash2             0      0.00%     21.72% # attempts to use FU when none available
system.cpu0.iq.fu_full::SimdShaSigma2               0      0.00%     21.72% # attempts to use FU when none available
system.cpu0.iq.fu_full::SimdShaSigma3               0      0.00%     21.72% # attempts to use FU when none available
system.cpu0.iq.fu_full::SimdPredAlu                 0      0.00%     21.72% # attempts to use FU when none available
system.cpu0.iq.fu_full::MemRead               2113119     62.21%     83.93% # attempts to use FU when none available
system.cpu0.iq.fu_full::MemWrite               545910     16.07%    100.00% # attempts to use FU when none available
system.cpu0.iq.fu_full::FloatMemRead                0      0.00%    100.00% # attempts to use FU when none available
system.cpu0.iq.fu_full::FloatMemWrite               2      0.00%    100.00% # attempts to use FU when none available
system.cpu0.iq.fu_full::IprAccess                   0      0.00%    100.00% # attempts to use FU when none available
system.cpu0.iq.fu_full::InstPrefetch                0      0.00%    100.00% # attempts to use FU when none available
system.cpu0.iq.int_alu_accesses            1374588817                       # Number of integer alu accesses
system.cpu0.iq.int_inst_queue_reads        5167119995                       # Number of integer instruction queue reads
system.cpu0.iq.int_inst_queue_wakeup_accesses   1353281607                       # Number of integer instruction queue wakeup accesses
system.cpu0.iq.int_inst_queue_writes       1444737310                       # Number of integer instruction queue writes
system.cpu0.iq.iqInstsAdded                1375386690                       # Number of instructions added to the IQ (excludes non-spec)
system.cpu0.iq.iqInstsIssued               1375397575                       # Number of instructions issued
system.cpu0.iq.iqNonSpecInstsAdded            6310350                       # Number of non-speculative instructions added to the IQ
system.cpu0.iq.iqSquashedInstsExamined       63030407                       # Number of squashed instructions iterated over during squash; mainly for profiling
system.cpu0.iq.iqSquashedInstsIssued           248401                       # Number of squashed instructions issued
system.cpu0.iq.iqSquashedNonSpecRemoved           639                       # Number of squashed non-spec instructions that were removed
system.cpu0.iq.iqSquashedOperandsExamined     28596483                       # Number of squashed operands that are examined and possibly removed from graph
system.cpu0.iq.issued_per_cycle::samples   2412679622                       # Number of insts issued each cycle
system.cpu0.iq.issued_per_cycle::mean        0.570071                       # Number of insts issued each cycle
system.cpu0.iq.issued_per_cycle::stdev       0.834011                       # Number of insts issued each cycle
system.cpu0.iq.issued_per_cycle::underflows            0      0.00%      0.00% # Number of insts issued each cycle
system.cpu0.iq.issued_per_cycle::0         1421051421     58.90%     58.90% # Number of insts issued each cycle
system.cpu0.iq.issued_per_cycle::1          717127072     29.72%     88.62% # Number of insts issued each cycle
system.cpu0.iq.issued_per_cycle::2          196259261      8.13%     96.76% # Number of insts issued each cycle
system.cpu0.iq.issued_per_cycle::3           59279071      2.46%     99.21% # Number of insts issued each cycle
system.cpu0.iq.issued_per_cycle::4           12105465      0.50%     99.72% # Number of insts issued each cycle
system.cpu0.iq.issued_per_cycle::5            3406668      0.14%     99.86% # Number of insts issued each cycle
system.cpu0.iq.issued_per_cycle::6            2043072      0.08%     99.94% # Number of insts issued each cycle
system.cpu0.iq.issued_per_cycle::7            1059600      0.04%     99.99% # Number of insts issued each cycle
system.cpu0.iq.issued_per_cycle::8             347992      0.01%    100.00% # Number of insts issued each cycle
system.cpu0.iq.issued_per_cycle::overflows            0      0.00%    100.00% # Number of insts issued each cycle
system.cpu0.iq.issued_per_cycle::min_value            0                       # Number of insts issued each cycle
system.cpu0.iq.issued_per_cycle::max_value            8                       # Number of insts issued each cycle
system.cpu0.iq.issued_per_cycle::total     2412679622                       # Number of insts issued each cycle
system.cpu0.iq.rate                          0.512979                       # Inst issue rate
system.cpu0.iq.vec_alu_accesses                     0                       # Number of vector alu accesses
system.cpu0.iq.vec_inst_queue_reads                 0                       # Number of vector instruction queue reads
system.cpu0.iq.vec_inst_queue_wakeup_accesses            0                       # Number of vector instruction queue wakeup accesses
system.cpu0.iq.vec_inst_queue_writes                0                       # Number of vector instruction queue writes
system.cpu0.itb.accesses                            0                       # DTB accesses
system.cpu0.itb.hits                                0                       # DTB hits
system.cpu0.itb.misses                              0                       # DTB misses
system.cpu0.itb.read_accesses                       0                       # DTB read accesses
system.cpu0.itb.read_hits                           0                       # DTB read hits
system.cpu0.itb.read_misses                         0                       # DTB read misses
system.cpu0.itb.write_accesses                      0                       # DTB write accesses
system.cpu0.itb.write_hits                          0                       # DTB write hits
system.cpu0.itb.write_misses                        0                       # DTB write misses
system.cpu0.memDep0.conflictingLoads         21020306                       # Number of conflicting loads.
system.cpu0.memDep0.conflictingStores         1496008                       # Number of conflicting stores.
system.cpu0.memDep0.insertedLoads           436374918                       # Number of loads inserted to the mem dependence unit.
system.cpu0.memDep0.insertedStores          156177356                       # Number of stores inserted to the mem dependence unit.
system.cpu0.misc_regfile_reads                   1890                       # number of misc regfile reads
system.cpu0.misc_regfile_writes                    22                       # number of misc regfile writes
system.cpu0.numCycles                      2681195134                       # number of cpu cycles simulated
system.cpu0.numWorkItemsCompleted                   0                       # number of work items this cpu completed
system.cpu0.numWorkItemsStarted                     0                       # number of work items this cpu started
system.cpu0.quiesceCycles                     9068923                       # Total number of cycles that CPU has spent quiesced or waiting for an interrupt
system.cpu0.rename.BlockCycles              411634898                       # Number of cycles rename is blocking
system.cpu0.rename.CommittedMaps            845206950                       # Number of HB maps that are committed
system.cpu0.rename.IQFullEvents              14872546                       # Number of times rename has blocked due to IQ full
system.cpu0.rename.IdleCycles               941542184                       # Number of cycles rename is idle
system.cpu0.rename.LQFullEvents              27476238                       # Number of times rename has blocked due to LQ full
system.cpu0.rename.ROBFullEvents                21532                       # Number of times rename has blocked due to ROB full
system.cpu0.rename.RenameLookups           1720783731                       # Number of register rename lookups that rename has made
system.cpu0.rename.RenamedInsts            1403079996                       # Number of instructions processed by rename
system.cpu0.rename.RenamedOperands          915298225                       # Number of destination operands rename has renamed
system.cpu0.rename.RunCycles                962147611                       # Number of cycles rename is running
system.cpu0.rename.SQFullEvents              42759057                       # Number of times rename has blocked due to SQ full
system.cpu0.rename.SquashCycles              10963172                       # Number of cycles rename is squashing
system.cpu0.rename.UnblockCycles             85973673                       # Number of cycles rename is unblocking
system.cpu0.rename.UndoneMaps                70091208                       # Number of HB maps that are undone due to squashing
system.cpu0.rename.fp_rename_lookups               44                       # Number of floating rename lookups
system.cpu0.rename.int_rename_lookups      1720783687                       # Number of integer rename lookups
system.cpu0.rename.serializeStallCycles        418084                       # count of cycles rename stalled for serializing inst
system.cpu0.rename.serializingInsts              5885                       # count of serializing insts renamed
system.cpu0.rename.skidInsts                 35191687                       # count of insts added to the skid buffer
system.cpu0.rename.tempSerializingInsts          5885                       # count of temporary serializing insts renamed
system.cpu0.rob.rob_reads                  3745925287                       # The number of ROB reads
system.cpu0.rob.rob_writes                 2778842740                       # The number of ROB writes
system.cpu0.timesIdled                       33440705                       # Number of times that the entire CPU went into an idle state and unscheduled itself
system.cpu0.workload.numSyscalls                 1857                       # Number of system calls
system.cpu1.branchPred.BTBCorrect                   0                       # Number of correct BTB predictions (this stat may not work properly.
system.cpu1.branchPred.BTBHitPct            90.842634                       # BTB Hit Percentage
system.cpu1.branchPred.BTBHits               20937939                       # Number of BTB hits
system.cpu1.branchPred.BTBLookups            23048582                       # Number of BTB lookups
system.cpu1.branchPred.RASInCorrect                 0                       # Number of incorrect RAS predictions.
system.cpu1.branchPred.condIncorrect          2803340                       # Number of conditional branches incorrect
system.cpu1.branchPred.condPredicted         31158782                       # Number of conditional branches predicted
system.cpu1.branchPred.indirectHits           1072256                       # Number of indirect target hits.
system.cpu1.branchPred.indirectLookups        1092838                       # Number of indirect predictor lookups.
system.cpu1.branchPred.indirectMisses           20582                       # Number of indirect misses.
system.cpu1.branchPred.lookups               35752331                       # Number of BP lookups
system.cpu1.branchPred.usedRAS                      0                       # Number of times the RAS was used to get a target.
system.cpu1.branchPredindirectMispredicted        47852                       # Number of mispredicted indirect branches.
system.cpu1.commit.amos                       2099996                       # Number of atomic instructions committed
system.cpu1.commit.branchMispredicts          1992456                       # The number of times a branch was mispredicted
system.cpu1.commit.branches                  28114048                       # Number of branches committed
system.cpu1.commit.bw_lim_events              3902124                       # number cycles where commit BW limit reached
system.cpu1.commit.commitNonSpecStalls        6300659                       # The number of times commit has been forced to stall to communicate backwards
system.cpu1.commit.commitSquashedInsts       16511620                       # The number of squashed insts skipped by commit
system.cpu1.commit.committedInsts           120038119                       # Number of instructions committed
system.cpu1.commit.committedOps             122138292                       # Number of ops (including micro ops) committed
system.cpu1.commit.committed_per_cycle::samples    488446851                       # Number of insts commited each cycle
system.cpu1.commit.committed_per_cycle::mean     0.250054                       # Number of insts commited each cycle
system.cpu1.commit.committed_per_cycle::stdev     1.008039                       # Number of insts commited each cycle
system.cpu1.commit.committed_per_cycle::underflows            0      0.00%      0.00% # Number of insts commited each cycle
system.cpu1.commit.committed_per_cycle::0    439443614     89.97%     89.97% # Number of insts commited each cycle
system.cpu1.commit.committed_per_cycle::1     24245075      4.96%     94.93% # Number of insts commited each cycle
system.cpu1.commit.committed_per_cycle::2      8262518      1.69%     96.62% # Number of insts commited each cycle
system.cpu1.commit.committed_per_cycle::3      6876887      1.41%     98.03% # Number of insts commited each cycle
system.cpu1.commit.committed_per_cycle::4      2043207      0.42%     98.45% # Number of insts commited each cycle
system.cpu1.commit.committed_per_cycle::5      1011245      0.21%     98.66% # Number of insts commited each cycle
system.cpu1.commit.committed_per_cycle::6      2343792      0.48%     99.14% # Number of insts commited each cycle
system.cpu1.commit.committed_per_cycle::7       318389      0.07%     99.20% # Number of insts commited each cycle
system.cpu1.commit.committed_per_cycle::8      3902124      0.80%    100.00% # Number of insts commited each cycle
system.cpu1.commit.committed_per_cycle::overflows            0      0.00%    100.00% # Number of insts commited each cycle
system.cpu1.commit.committed_per_cycle::min_value            0                       # Number of insts commited each cycle
system.cpu1.commit.committed_per_cycle::max_value            8                       # Number of insts commited each cycle
system.cpu1.commit.committed_per_cycle::total    488446851                       # Number of insts commited each cycle
system.cpu1.commit.fp_insts                        12                       # Number of committed floating point instructions.
system.cpu1.commit.function_calls             1797237                       # Number of function calls committed.
system.cpu1.commit.int_insts                116575900                       # Number of committed integer instructions.
system.cpu1.commit.loads                     30171655                       # Number of loads committed
system.cpu1.commit.membars                    4200117                       # Number of memory barriers committed
system.cpu1.commit.op_class_0::No_OpClass      4200117      3.44%      3.44% # Class of committed instruction
system.cpu1.commit.op_class_0::IntAlu        76649353     62.76%     66.20% # Class of committed instruction
system.cpu1.commit.op_class_0::IntMult             44      0.00%     66.20% # Class of committed instruction
system.cpu1.commit.op_class_0::IntDiv              88      0.00%     66.20% # Class of committed instruction
system.cpu1.commit.op_class_0::FloatAdd             0      0.00%     66.20% # Class of committed instruction
system.cpu1.commit.op_class_0::FloatCmp             0      0.00%     66.20% # Class of committed instruction
system.cpu1.commit.op_class_0::FloatCvt             0      0.00%     66.20% # Class of committed instruction
system.cpu1.commit.op_class_0::FloatMult            0      0.00%     66.20% # Class of committed instruction
system.cpu1.commit.op_class_0::FloatMultAcc            0      0.00%     66.20% # Class of committed instruction
system.cpu1.commit.op_class_0::FloatDiv             0      0.00%     66.20% # Class of committed instruction
system.cpu1.commit.op_class_0::FloatMisc            0      0.00%     66.20% # Class of committed instruction
system.cpu1.commit.op_class_0::FloatSqrt            0      0.00%     66.20% # Class of committed instruction
system.cpu1.commit.op_class_0::SimdAdd              0      0.00%     66.20% # Class of committed instruction
system.cpu1.commit.op_class_0::SimdAddAcc            0      0.00%     66.20% # Class of committed instruction
system.cpu1.commit.op_class_0::SimdAlu              0      0.00%     66.20% # Class of committed instruction
system.cpu1.commit.op_class_0::SimdCmp              0      0.00%     66.20% # Class of committed instruction
system.cpu1.commit.op_class_0::SimdCvt              0      0.00%     66.20% # Class of committed instruction
system.cpu1.commit.op_class_0::SimdMisc             0      0.00%     66.20% # Class of committed instruction
system.cpu1.commit.op_class_0::SimdMult             0      0.00%     66.20% # Class of committed instruction
system.cpu1.commit.op_class_0::SimdMultAcc            0      0.00%     66.20% # Class of committed instruction
system.cpu1.commit.op_class_0::SimdShift            0      0.00%     66.20% # Class of committed instruction
system.cpu1.commit.op_class_0::SimdShiftAcc            0      0.00%     66.20% # Class of committed instruction
system.cpu1.commit.op_class_0::SimdDiv              0      0.00%     66.20% # Class of committed instruction
system.cpu1.commit.op_class_0::SimdSqrt             0      0.00%     66.20% # Class of committed instruction
system.cpu1.commit.op_class_0::SimdFloatAdd            0      0.00%     66.20% # Class of committed instruction
system.cpu1.commit.op_class_0::SimdFloatAlu            0      0.00%     66.20% # Class of committed instruction
system.cpu1.commit.op_class_0::SimdFloatCmp            0      0.00%     66.20% # Class of committed instruction
system.cpu1.commit.op_class_0::SimdFloatCvt            0      0.00%     66.20% # Class of committed instruction
system.cpu1.commit.op_class_0::SimdFloatDiv            0      0.00%     66.20% # Class of committed instruction
system.cpu1.commit.op_class_0::SimdFloatMisc            0      0.00%     66.20% # Class of committed instruction
system.cpu1.commit.op_class_0::SimdFloatMult            0      0.00%     66.20% # Class of committed instruction
system.cpu1.commit.op_class_0::SimdFloatMultAcc            0      0.00%     66.20% # Class of committed instruction
system.cpu1.commit.op_class_0::SimdFloatSqrt            0      0.00%     66.20% # Class of committed instruction
system.cpu1.commit.op_class_0::SimdReduceAdd            0      0.00%     66.20% # Class of committed instruction
system.cpu1.commit.op_class_0::SimdReduceAlu            0      0.00%     66.20% # Class of committed instruction
system.cpu1.commit.op_class_0::SimdReduceCmp            0      0.00%     66.20% # Class of committed instruction
system.cpu1.commit.op_class_0::SimdFloatReduceAdd            0      0.00%     66.20% # Class of committed instruction
system.cpu1.commit.op_class_0::SimdFloatReduceCmp            0      0.00%     66.20% # Class of committed instruction
system.cpu1.commit.op_class_0::SimdAes              0      0.00%     66.20% # Class of committed instruction
system.cpu1.commit.op_class_0::SimdAesMix            0      0.00%     66.20% # Class of committed instruction
system.cpu1.commit.op_class_0::SimdSha1Hash            0      0.00%     66.20% # Class of committed instruction
system.cpu1.commit.op_class_0::SimdSha1Hash2            0      0.00%     66.20% # Class of committed instruction
system.cpu1.commit.op_class_0::SimdSha256Hash            0      0.00%     66.20% # Class of committed instruction
system.cpu1.commit.op_class_0::SimdSha256Hash2            0      0.00%     66.20% # Class of committed instruction
system.cpu1.commit.op_class_0::SimdShaSigma2            0      0.00%     66.20% # Class of committed instruction
system.cpu1.commit.op_class_0::SimdShaSigma3            0      0.00%     66.20% # Class of committed instruction
system.cpu1.commit.op_class_0::SimdPredAlu            0      0.00%     66.20% # Class of committed instruction
system.cpu1.commit.op_class_0::MemRead       32271651     26.42%     92.62% # Class of committed instruction
system.cpu1.commit.op_class_0::MemWrite       9017027      7.38%    100.00% # Class of committed instruction
system.cpu1.commit.op_class_0::FloatMemRead            0      0.00%    100.00% # Class of committed instruction
system.cpu1.commit.op_class_0::FloatMemWrite           12      0.00%    100.00% # Class of committed instruction
system.cpu1.commit.op_class_0::IprAccess            0      0.00%    100.00% # Class of committed instruction
system.cpu1.commit.op_class_0::InstPrefetch            0      0.00%    100.00% # Class of committed instruction
system.cpu1.commit.op_class_0::total        122138292                       # Class of committed instruction
system.cpu1.commit.refs                      41288690                       # Number of memory references committed
system.cpu1.commit.swp_count                        0                       # Number of s/w prefetches committed
system.cpu1.commit.vec_insts                        0                       # Number of committed Vector instructions.
system.cpu1.committedInsts                  120038119                       # Number of Instructions Simulated
system.cpu1.committedOps                    122138292                       # Number of Ops (including micro ops) Simulated
system.cpu1.cpi                              4.101946                       # CPI: Cycles Per Instruction
system.cpu1.cpi_total                        4.101946                       # CPI: Total CPI of All Threads
system.cpu1.decode.BlockedCycles            396318792                       # Number of cycles decode is blocked
system.cpu1.decode.BranchMispred               861429                       # Number of times decode detected a branch misprediction
system.cpu1.decode.BranchResolved            19873932                       # Number of times decode resolved a branch
system.cpu1.decode.DecodedInsts             145726319                       # Number of instructions handled by decode
system.cpu1.decode.IdleCycles                23247276                       # Number of cycles decode is idle
system.cpu1.decode.RunCycles                 65061263                       # Number of cycles decode is running
system.cpu1.decode.SquashCycles               1994129                       # Number of cycles decode is squashing
system.cpu1.decode.SquashedInsts              2081630                       # Number of squashed instructions handled by decode
system.cpu1.decode.UnblockCycles              5199312                       # Number of cycles decode is unblocking
system.cpu1.dtb.accesses                            0                       # DTB accesses
system.cpu1.dtb.hits                                0                       # DTB hits
system.cpu1.dtb.misses                              0                       # DTB misses
system.cpu1.dtb.read_accesses                       0                       # DTB read accesses
system.cpu1.dtb.read_hits                           0                       # DTB read hits
system.cpu1.dtb.read_misses                         0                       # DTB read misses
system.cpu1.dtb.write_accesses                      0                       # DTB write accesses
system.cpu1.dtb.write_hits                          0                       # DTB write hits
system.cpu1.dtb.write_misses                        0                       # DTB write misses
system.cpu1.fetch.Branches                   35752331                       # Number of branches that fetch encountered
system.cpu1.fetch.CacheLines                 21660056                       # Number of cache lines fetched
system.cpu1.fetch.Cycles                    465288149                       # Number of cycles fetch has run and was not squashing or blocked
system.cpu1.fetch.IcacheSquashes               245424                       # Number of outstanding Icache misses that were squashed
system.cpu1.fetch.Insts                     151164731                       # Number of instructions fetch has processed
system.cpu1.fetch.MiscStallCycles                   1                       # Number of cycles fetch has spent waiting on interrupts, or bad addresses, or out of MSHRs
system.cpu1.fetch.SquashCycles                5610026                       # Number of cycles fetch has spent squashing
system.cpu1.fetch.branchRate                 0.072610                       # Number of branch fetches per cycle
system.cpu1.fetch.icacheStallCycles          23727609                       # Number of cycles fetch is stalled on an Icache miss
system.cpu1.fetch.predictedBranches          22010195                       # Number of branches that fetch has predicted taken
system.cpu1.fetch.rate                       0.307002                       # Number of inst fetches per cycle
system.cpu1.fetch.rateDist::samples         491820772                       # Number of instructions fetched each cycle (Total)
system.cpu1.fetch.rateDist::mean             0.311628                       # Number of instructions fetched each cycle (Total)
system.cpu1.fetch.rateDist::stdev            0.731281                       # Number of instructions fetched each cycle (Total)
system.cpu1.fetch.rateDist::underflows              0      0.00%      0.00% # Number of instructions fetched each cycle (Total)
system.cpu1.fetch.rateDist::0               393240781     79.96%     79.96% # Number of instructions fetched each cycle (Total)
system.cpu1.fetch.rateDist::1                63187643     12.85%     92.80% # Number of instructions fetched each cycle (Total)
system.cpu1.fetch.rateDist::2                20215442      4.11%     96.91% # Number of instructions fetched each cycle (Total)
system.cpu1.fetch.rateDist::3                11659525      2.37%     99.28% # Number of instructions fetched each cycle (Total)
system.cpu1.fetch.rateDist::4                 2978963      0.61%     99.89% # Number of instructions fetched each cycle (Total)
system.cpu1.fetch.rateDist::5                  478705      0.10%     99.99% # Number of instructions fetched each cycle (Total)
system.cpu1.fetch.rateDist::6                   59427      0.01%    100.00% # Number of instructions fetched each cycle (Total)
system.cpu1.fetch.rateDist::7                       7      0.00%    100.00% # Number of instructions fetched each cycle (Total)
system.cpu1.fetch.rateDist::8                     279      0.00%    100.00% # Number of instructions fetched each cycle (Total)
system.cpu1.fetch.rateDist::overflows               0      0.00%    100.00% # Number of instructions fetched each cycle (Total)
system.cpu1.fetch.rateDist::min_value               0                       # Number of instructions fetched each cycle (Total)
system.cpu1.fetch.rateDist::max_value               8                       # Number of instructions fetched each cycle (Total)
system.cpu1.fetch.rateDist::total           491820772                       # Number of instructions fetched each cycle (Total)
system.cpu1.fp_regfile_reads                       12                       # number of floating regfile reads
system.cpu1.idleCycles                         569100                       # Total number of cycles that the CPU has spent unscheduled due to idling
system.cpu1.iew.branchMispredicts             2073205                       # Number of branch mispredicts detected at execute
system.cpu1.iew.exec_branches                30598168                       # Number of branches executed
system.cpu1.iew.exec_nop                            0                       # number of nop insts executed
system.cpu1.iew.exec_rate                    0.271113                       # Inst execution rate
system.cpu1.iew.exec_refs                    45452040                       # number of memory reference insts executed
system.cpu1.iew.exec_stores                  11515130                       # Number of stores executed
system.cpu1.iew.exec_swp                            0                       # number of swp insts executed
system.cpu1.iew.iewBlockCycles              322338989                       # Number of cycles IEW is blocking
system.cpu1.iew.iewDispLoadInsts             34407527                       # Number of dispatched load instructions
system.cpu1.iew.iewDispNonSpecInsts           2100708                       # Number of dispatched non-speculative instructions
system.cpu1.iew.iewDispSquashedInsts          2356358                       # Number of squashed instructions skipped by dispatch
system.cpu1.iew.iewDispStoreInsts            11837536                       # Number of dispatched store instructions
system.cpu1.iew.iewDispatchedInsts          138606967                       # Number of instructions dispatched to IQ
system.cpu1.iew.iewExecLoadInsts             33936910                       # Number of load instructions executed
system.cpu1.iew.iewExecSquashedInsts          2125681                       # Number of squashed instructions skipped in execute
system.cpu1.iew.iewExecutedInsts            133493317                       # Number of executed instructions
system.cpu1.iew.iewIQFullEvents               1915087                       # Number of times the IQ has become full, causing a stall
system.cpu1.iew.iewIdleCycles                       0                       # Number of cycles IEW is idle
system.cpu1.iew.iewLSQFullEvents              6726725                       # Number of times the LSQ has become full, causing a stall
system.cpu1.iew.iewSquashCycles               1994129                       # Number of cycles IEW is squashing
system.cpu1.iew.iewUnblockCycles             11191902                       # Number of cycles IEW is unblocking
system.cpu1.iew.lsq.thread0.blockedLoads            0                       # Number of blocked loads due to partial load-store forwarding
system.cpu1.iew.lsq.thread0.cacheBlocked       171963                       # Number of times an access to memory failed due to the cache being blocked
system.cpu1.iew.lsq.thread0.forwLoads          944807                       # Number of loads that had data forwarded from stores
system.cpu1.iew.lsq.thread0.ignoredResponses        30906                       # Number of memory responses ignored because the instruction is squashed
system.cpu1.iew.lsq.thread0.invAddrLoads            0                       # Number of loads ignored due to an invalid address
system.cpu1.iew.lsq.thread0.invAddrSwpfs            0                       # Number of software prefetches ignored due to an invalid address
system.cpu1.iew.lsq.thread0.memOrderViolation         2286                       # Number of memory ordering violations
system.cpu1.iew.lsq.thread0.rescheduledLoads        15601                       # Number of loads that were rescheduled
system.cpu1.iew.lsq.thread0.squashedLoads      4235872                       # Number of loads squashed
system.cpu1.iew.lsq.thread0.squashedStores       720501                       # Number of stores squashed
system.cpu1.iew.memOrderViolationEvents          2286                       # Number of memory order violations
system.cpu1.iew.predictedNotTakenIncorrect       550498                       # Number of branches that were predicted not taken incorrectly
system.cpu1.iew.predictedTakenIncorrect       1522707                       # Number of branches that were predicted taken incorrectly
system.cpu1.iew.wb_consumers                 78198442                       # num instructions consuming a value
system.cpu1.iew.wb_count                    131841450                       # cumulative count of insts written-back
system.cpu1.iew.wb_fanout                    0.835608                       # average fanout of values written-back
system.cpu1.iew.wb_producers                 65343243                       # num instructions producing a value
system.cpu1.iew.wb_rate                      0.267758                       # insts written-back per cycle
system.cpu1.iew.wb_sent                     131914125                       # cumulative count of insts sent to commit
system.cpu1.int_regfile_reads               169349695                       # number of integer regfile reads
system.cpu1.int_regfile_writes               88730932                       # number of integer regfile writes
system.cpu1.ipc                              0.243787                       # IPC: Instructions Per Cycle
system.cpu1.ipc_total                        0.243787                       # IPC: Total IPC of All Threads
system.cpu1.iq.FU_type_0::No_OpClass          4200214      3.10%      3.10% # Type of FU issued
system.cpu1.iq.FU_type_0::IntAlu             85322132     62.91%     66.01% # Type of FU issued
system.cpu1.iq.FU_type_0::IntMult                  46      0.00%     66.01% # Type of FU issued
system.cpu1.iq.FU_type_0::IntDiv                   88      0.00%     66.01% # Type of FU issued
system.cpu1.iq.FU_type_0::FloatAdd                  0      0.00%     66.01% # Type of FU issued
system.cpu1.iq.FU_type_0::FloatCmp                  0      0.00%     66.01% # Type of FU issued
system.cpu1.iq.FU_type_0::FloatCvt                  0      0.00%     66.01% # Type of FU issued
system.cpu1.iq.FU_type_0::FloatMult                 0      0.00%     66.01% # Type of FU issued
system.cpu1.iq.FU_type_0::FloatMultAcc              0      0.00%     66.01% # Type of FU issued
system.cpu1.iq.FU_type_0::FloatDiv                  0      0.00%     66.01% # Type of FU issued
system.cpu1.iq.FU_type_0::FloatMisc                 0      0.00%     66.01% # Type of FU issued
system.cpu1.iq.FU_type_0::FloatSqrt                 0      0.00%     66.01% # Type of FU issued
system.cpu1.iq.FU_type_0::SimdAdd                   0      0.00%     66.01% # Type of FU issued
system.cpu1.iq.FU_type_0::SimdAddAcc                0      0.00%     66.01% # Type of FU issued
system.cpu1.iq.FU_type_0::SimdAlu                   0      0.00%     66.01% # Type of FU issued
system.cpu1.iq.FU_type_0::SimdCmp                   0      0.00%     66.01% # Type of FU issued
system.cpu1.iq.FU_type_0::SimdCvt                   0      0.00%     66.01% # Type of FU issued
system.cpu1.iq.FU_type_0::SimdMisc                  0      0.00%     66.01% # Type of FU issued
system.cpu1.iq.FU_type_0::SimdMult                  0      0.00%     66.01% # Type of FU issued
system.cpu1.iq.FU_type_0::SimdMultAcc               0      0.00%     66.01% # Type of FU issued
system.cpu1.iq.FU_type_0::SimdShift                 0      0.00%     66.01% # Type of FU issued
system.cpu1.iq.FU_type_0::SimdShiftAcc              0      0.00%     66.01% # Type of FU issued
system.cpu1.iq.FU_type_0::SimdDiv                   0      0.00%     66.01% # Type of FU issued
system.cpu1.iq.FU_type_0::SimdSqrt                  0      0.00%     66.01% # Type of FU issued
system.cpu1.iq.FU_type_0::SimdFloatAdd              0      0.00%     66.01% # Type of FU issued
system.cpu1.iq.FU_type_0::SimdFloatAlu              0      0.00%     66.01% # Type of FU issued
system.cpu1.iq.FU_type_0::SimdFloatCmp              0      0.00%     66.01% # Type of FU issued
system.cpu1.iq.FU_type_0::SimdFloatCvt              0      0.00%     66.01% # Type of FU issued
system.cpu1.iq.FU_type_0::SimdFloatDiv              0      0.00%     66.01% # Type of FU issued
system.cpu1.iq.FU_type_0::SimdFloatMisc             0      0.00%     66.01% # Type of FU issued
system.cpu1.iq.FU_type_0::SimdFloatMult             0      0.00%     66.01% # Type of FU issued
system.cpu1.iq.FU_type_0::SimdFloatMultAcc            0      0.00%     66.01% # Type of FU issued
system.cpu1.iq.FU_type_0::SimdFloatSqrt             0      0.00%     66.01% # Type of FU issued
system.cpu1.iq.FU_type_0::SimdReduceAdd             0      0.00%     66.01% # Type of FU issued
system.cpu1.iq.FU_type_0::SimdReduceAlu             0      0.00%     66.01% # Type of FU issued
system.cpu1.iq.FU_type_0::SimdReduceCmp             0      0.00%     66.01% # Type of FU issued
system.cpu1.iq.FU_type_0::SimdFloatReduceAdd            0      0.00%     66.01% # Type of FU issued
system.cpu1.iq.FU_type_0::SimdFloatReduceCmp            0      0.00%     66.01% # Type of FU issued
system.cpu1.iq.FU_type_0::SimdAes                   0      0.00%     66.01% # Type of FU issued
system.cpu1.iq.FU_type_0::SimdAesMix                0      0.00%     66.01% # Type of FU issued
system.cpu1.iq.FU_type_0::SimdSha1Hash              0      0.00%     66.01% # Type of FU issued
system.cpu1.iq.FU_type_0::SimdSha1Hash2             0      0.00%     66.01% # Type of FU issued
system.cpu1.iq.FU_type_0::SimdSha256Hash            0      0.00%     66.01% # Type of FU issued
system.cpu1.iq.FU_type_0::SimdSha256Hash2            0      0.00%     66.01% # Type of FU issued
system.cpu1.iq.FU_type_0::SimdShaSigma2             0      0.00%     66.01% # Type of FU issued
system.cpu1.iq.FU_type_0::SimdShaSigma3             0      0.00%     66.01% # Type of FU issued
system.cpu1.iq.FU_type_0::SimdPredAlu               0      0.00%     66.01% # Type of FU issued
system.cpu1.iq.FU_type_0::MemRead            36637443     27.01%     93.03% # Type of FU issued
system.cpu1.iq.FU_type_0::MemWrite            9459063      6.97%    100.00% # Type of FU issued
system.cpu1.iq.FU_type_0::FloatMemRead              0      0.00%    100.00% # Type of FU issued
system.cpu1.iq.FU_type_0::FloatMemWrite            12      0.00%    100.00% # Type of FU issued
system.cpu1.iq.FU_type_0::IprAccess                 0      0.00%    100.00% # Type of FU issued
system.cpu1.iq.FU_type_0::InstPrefetch              0      0.00%    100.00% # Type of FU issued
system.cpu1.iq.FU_type_0::total             135618998                       # Type of FU issued
system.cpu1.iq.fp_alu_accesses                     14                       # Number of floating point alu accesses
system.cpu1.iq.fp_inst_queue_reads                 26                       # Number of floating instruction queue reads
system.cpu1.iq.fp_inst_queue_wakeup_accesses           12                       # Number of floating instruction queue wakeup accesses
system.cpu1.iq.fp_inst_queue_writes                12                       # Number of floating instruction queue writes
system.cpu1.iq.fu_busy_cnt                    3041146                       # FU busy when requested
system.cpu1.iq.fu_busy_rate                  0.022424                       # FU busy rate (busy events/executed inst)
system.cpu1.iq.fu_full::No_OpClass                  0      0.00%      0.00% # attempts to use FU when none available
system.cpu1.iq.fu_full::IntAlu                 704089     23.15%     23.15% # attempts to use FU when none available
system.cpu1.iq.fu_full::IntMult                     0      0.00%     23.15% # attempts to use FU when none available
system.cpu1.iq.fu_full::IntDiv                      0      0.00%     23.15% # attempts to use FU when none available
system.cpu1.iq.fu_full::FloatAdd                    0      0.00%     23.15% # attempts to use FU when none available
system.cpu1.iq.fu_full::FloatCmp                    0      0.00%     23.15% # attempts to use FU when none available
system.cpu1.iq.fu_full::FloatCvt                    0      0.00%     23.15% # attempts to use FU when none available
system.cpu1.iq.fu_full::FloatMult                   0      0.00%     23.15% # attempts to use FU when none available
system.cpu1.iq.fu_full::FloatMultAcc                0      0.00%     23.15% # attempts to use FU when none available
system.cpu1.iq.fu_full::FloatDiv                    0      0.00%     23.15% # attempts to use FU when none available
system.cpu1.iq.fu_full::FloatMisc                   0      0.00%     23.15% # attempts to use FU when none available
system.cpu1.iq.fu_full::FloatSqrt                   0      0.00%     23.15% # attempts to use FU when none available
system.cpu1.iq.fu_full::SimdAdd                     0      0.00%     23.15% # attempts to use FU when none available
system.cpu1.iq.fu_full::SimdAddAcc                  0      0.00%     23.15% # attempts to use FU when none available
system.cpu1.iq.fu_full::SimdAlu                     0      0.00%     23.15% # attempts to use FU when none available
system.cpu1.iq.fu_full::SimdCmp                     0      0.00%     23.15% # attempts to use FU when none available
system.cpu1.iq.fu_full::SimdCvt                     0      0.00%     23.15% # attempts to use FU when none available
system.cpu1.iq.fu_full::SimdMisc                    0      0.00%     23.15% # attempts to use FU when none available
system.cpu1.iq.fu_full::SimdMult                    0      0.00%     23.15% # attempts to use FU when none available
system.cpu1.iq.fu_full::SimdMultAcc                 0      0.00%     23.15% # attempts to use FU when none available
system.cpu1.iq.fu_full::SimdShift                   0      0.00%     23.15% # attempts to use FU when none available
system.cpu1.iq.fu_full::SimdShiftAcc                0      0.00%     23.15% # attempts to use FU when none available
system.cpu1.iq.fu_full::SimdDiv                     0      0.00%     23.15% # attempts to use FU when none available
system.cpu1.iq.fu_full::SimdSqrt                    0      0.00%     23.15% # attempts to use FU when none available
system.cpu1.iq.fu_full::SimdFloatAdd                0      0.00%     23.15% # attempts to use FU when none available
system.cpu1.iq.fu_full::SimdFloatAlu                0      0.00%     23.15% # attempts to use FU when none available
system.cpu1.iq.fu_full::SimdFloatCmp                0      0.00%     23.15% # attempts to use FU when none available
system.cpu1.iq.fu_full::SimdFloatCvt                0      0.00%     23.15% # attempts to use FU when none available
system.cpu1.iq.fu_full::SimdFloatDiv                0      0.00%     23.15% # attempts to use FU when none available
system.cpu1.iq.fu_full::SimdFloatMisc               0      0.00%     23.15% # attempts to use FU when none available
system.cpu1.iq.fu_full::SimdFloatMult               0      0.00%     23.15% # attempts to use FU when none available
system.cpu1.iq.fu_full::SimdFloatMultAcc            0      0.00%     23.15% # attempts to use FU when none available
system.cpu1.iq.fu_full::SimdFloatSqrt               0      0.00%     23.15% # attempts to use FU when none available
system.cpu1.iq.fu_full::SimdReduceAdd               0      0.00%     23.15% # attempts to use FU when none available
system.cpu1.iq.fu_full::SimdReduceAlu               0      0.00%     23.15% # attempts to use FU when none available
system.cpu1.iq.fu_full::SimdReduceCmp               0      0.00%     23.15% # attempts to use FU when none available
system.cpu1.iq.fu_full::SimdFloatReduceAdd            0      0.00%     23.15% # attempts to use FU when none available
system.cpu1.iq.fu_full::SimdFloatReduceCmp            0      0.00%     23.15% # attempts to use FU when none available
system.cpu1.iq.fu_full::SimdAes                     0      0.00%     23.15% # attempts to use FU when none available
system.cpu1.iq.fu_full::SimdAesMix                  0      0.00%     23.15% # attempts to use FU when none available
system.cpu1.iq.fu_full::SimdSha1Hash                0      0.00%     23.15% # attempts to use FU when none available
system.cpu1.iq.fu_full::SimdSha1Hash2               0      0.00%     23.15% # attempts to use FU when none available
system.cpu1.iq.fu_full::SimdSha256Hash              0      0.00%     23.15% # attempts to use FU when none available
system.cpu1.iq.fu_full::SimdSha256Hash2             0      0.00%     23.15% # attempts to use FU when none available
system.cpu1.iq.fu_full::SimdShaSigma2               0      0.00%     23.15% # attempts to use FU when none available
system.cpu1.iq.fu_full::SimdShaSigma3               0      0.00%     23.15% # attempts to use FU when none available
system.cpu1.iq.fu_full::SimdPredAlu                 0      0.00%     23.15% # attempts to use FU when none available
system.cpu1.iq.fu_full::MemRead               1853902     60.96%     84.11% # attempts to use FU when none available
system.cpu1.iq.fu_full::MemWrite               483153     15.89%    100.00% # attempts to use FU when none available
[...]
system.cpu1.dcache.WriteReq_hits::.cpu1.data      4644350                       # number of WriteReq hits
system.cpu1.dcache.WriteReq_hits::total       4644350                       # number of WriteReq hits
system.cpu1.dcache.WriteReq_misses::.cpu1.data      9149878                       # number of WriteReq misses
system.cpu1.dcache.WriteReq_misses::total      9149878                       # number of WriteReq misses
system.cpu1.dcache.WriteReq_miss_latency::.cpu1.data 714937369432                       # number of WriteReq miss cycles
system.cpu1.dcache.WriteReq_miss_latency::total 714937369432                       # number of WriteReq miss cycles
system.cpu1.dcache.WriteReq_accesses::.cpu1.data     13794228                       # number of WriteReq accesses(hits+misses)
system.cpu1.dcache.WriteReq_accesses::total     13794228                       # number of WriteReq accesses(hits+misses)
system.cpu1.dcache.WriteReq_miss_rate::.cpu1.data     0.663312                       # miss rate for WriteReq accesses
system.cpu1.dcache.WriteReq_miss_rate::total     0.663312                       # miss rate for WriteReq accesses
system.cpu1.dcache.WriteReq_avg_miss_latency::.cpu1.data 78136.273449                       # average WriteReq miss latency
system.cpu1.dcache.WriteReq_avg_miss_latency::total 78136.273449                       # average WriteReq miss latency
system.cpu1.dcache.WriteReq_mshr_hits::.cpu1.data      8256410                       # number of WriteReq MSHR hits
system.cpu1.dcache.WriteReq_mshr_hits::total      8256410                       # number of WriteReq MSHR hits
system.cpu1.dcache.WriteReq_mshr_misses::.cpu1.data       893468                       # number of WriteReq MSHR misses
system.cpu1.dcache.WriteReq_mshr_misses::total       893468                       # number of WriteReq MSHR misses
system.cpu1.dcache.WriteReq_mshr_miss_latency::.cpu1.data  84462088085                       # number of WriteReq MSHR miss cycles
system.cpu1.dcache.WriteReq_mshr_miss_latency::total  84462088085                       # number of WriteReq MSHR miss cycles
system.cpu1.dcache.WriteReq_mshr_miss_rate::.cpu1.data     0.064771                       # mshr miss rate for WriteReq accesses
system.cpu1.dcache.WriteReq_mshr_miss_rate::total     0.064771                       # mshr miss rate for WriteReq accesses
system.cpu1.dcache.WriteReq_avg_mshr_miss_latency::.cpu1.data 94532.863052                       # average WriteReq mshr miss latency
system.cpu1.dcache.WriteReq_avg_mshr_miss_latency::total 94532.863052                       # average WriteReq mshr miss latency
system.cpu1.dcache.LoadLockedReq_hits::.cpu1.data        72923                       # number of LoadLockedReq hits
system.cpu1.dcache.LoadLockedReq_hits::total        72923                       # number of LoadLockedReq hits
system.cpu1.dcache.LoadLockedReq_misses::.cpu1.data          711                       # number of LoadLockedReq misses
system.cpu1.dcache.LoadLockedReq_misses::total          711                       # number of LoadLockedReq misses
system.cpu1.dcache.LoadLockedReq_miss_latency::.cpu1.data     25982000                       # number of LoadLockedReq miss cycles
system.cpu1.dcache.LoadLockedReq_miss_latency::total     25982000                       # number of LoadLockedReq miss cycles
system.cpu1.dcache.LoadLockedReq_accesses::.cpu1.data        73634                       # number of LoadLockedReq accesses(hits+misses)
system.cpu1.dcache.LoadLockedReq_accesses::total        73634                       # number of LoadLockedReq accesses(hits+misses)
system.cpu1.dcache.LoadLockedReq_miss_rate::.cpu1.data     0.009656                       # miss rate for LoadLockedReq accesses
system.cpu1.dcache.LoadLockedReq_miss_rate::total     0.009656                       # miss rate for LoadLockedReq accesses
system.cpu1.dcache.LoadLockedReq_avg_miss_latency::.cpu1.data 36542.897328                       # average LoadLockedReq miss latency
system.cpu1.dcache.LoadLockedReq_avg_miss_latency::total 36542.897328                       # average LoadLockedReq miss latency
system.cpu1.dcache.LoadLockedReq_mshr_hits::.cpu1.data          126                       # number of LoadLockedReq MSHR hits
system.cpu1.dcache.LoadLockedReq_mshr_hits::total          126                       # number of LoadLockedReq MSHR hits
system.cpu1.dcache.LoadLockedReq_mshr_misses::.cpu1.data          585                       # number of LoadLockedReq MSHR misses
system.cpu1.dcache.LoadLockedReq_mshr_misses::total          585                       # number of LoadLockedReq MSHR misses
system.cpu1.dcache.LoadLockedReq_mshr_miss_latency::.cpu1.data     22078500                       # number of LoadLockedReq MSHR miss cycles
system.cpu1.dcache.LoadLockedReq_mshr_miss_latency::total     22078500                       # number of LoadLockedReq MSHR miss cycles
system.cpu1.dcache.LoadLockedReq_mshr_miss_rate::.cpu1.data     0.007945                       # mshr miss rate for LoadLockedReq accesses
system.cpu1.dcache.LoadLockedReq_mshr_miss_rate::total     0.007945                       # mshr miss rate for LoadLockedReq accesses
system.cpu1.dcache.LoadLockedReq_avg_mshr_miss_latency::.cpu1.data 37741.025641                       # average LoadLockedReq mshr miss latency
system.cpu1.dcache.LoadLockedReq_avg_mshr_miss_latency::total 37741.025641                       # average LoadLockedReq mshr miss latency
system.cpu1.dcache.StoreCondReq_hits::.cpu1.data        70712                       # number of StoreCondReq hits
system.cpu1.dcache.StoreCondReq_hits::total        70712                       # number of StoreCondReq hits
system.cpu1.dcache.StoreCondReq_misses::.cpu1.data         1795                       # number of StoreCondReq misses
system.cpu1.dcache.StoreCondReq_misses::total         1795                       # number of StoreCondReq misses
system.cpu1.dcache.StoreCondReq_miss_latency::.cpu1.data     12859000                       # number of StoreCondReq miss cycles
system.cpu1.dcache.StoreCondReq_miss_latency::total     12859000                       # number of StoreCondReq miss cycles
system.cpu1.dcache.StoreCondReq_accesses::.cpu1.data        72507                       # number of StoreCondReq accesses(hits+misses)
system.cpu1.dcache.StoreCondReq_accesses::total        72507                       # number of StoreCondReq accesses(hits+misses)
system.cpu1.dcache.StoreCondReq_miss_rate::.cpu1.data     0.024756                       # miss rate for StoreCondReq accesses
system.cpu1.dcache.StoreCondReq_miss_rate::total     0.024756                       # miss rate for StoreCondReq accesses
system.cpu1.dcache.StoreCondReq_avg_miss_latency::.cpu1.data  7163.788301                       # average StoreCondReq miss latency
system.cpu1.dcache.StoreCondReq_avg_miss_latency::total  7163.788301                       # average StoreCondReq miss latency
system.cpu1.dcache.StoreCondReq_mshr_misses::.cpu1.data         1795                       # number of StoreCondReq MSHR misses
system.cpu1.dcache.StoreCondReq_mshr_misses::total         1795                       # number of StoreCondReq MSHR misses
system.cpu1.dcache.StoreCondReq_mshr_miss_latency::.cpu1.data     11090000                       # number of StoreCondReq MSHR miss cycles
system.cpu1.dcache.StoreCondReq_mshr_miss_latency::total     11090000                       # number of StoreCondReq MSHR miss cycles
system.cpu1.dcache.StoreCondReq_mshr_miss_rate::.cpu1.data     0.024756                       # mshr miss rate for StoreCondReq accesses
system.cpu1.dcache.StoreCondReq_mshr_miss_rate::total     0.024756                       # mshr miss rate for StoreCondReq accesses
system.cpu1.dcache.StoreCondReq_avg_mshr_miss_latency::.cpu1.data  6178.272981                       # average StoreCondReq mshr miss latency
system.cpu1.dcache.StoreCondReq_avg_mshr_miss_latency::total  6178.272981                       # average StoreCondReq mshr miss latency
system.cpu1.dcache.StoreCondFailReq_miss_latency::.cpu1.data       587000                       # number of StoreCondFailReq miss cycles
system.cpu1.dcache.StoreCondFailReq_miss_latency::total       587000                       # number of StoreCondFailReq miss cycles
system.cpu1.dcache.StoreCondFailReq_avg_miss_latency::.cpu1.data          inf                       # average StoreCondFailReq miss latency
system.cpu1.dcache.StoreCondFailReq_avg_miss_latency::total          inf                       # average StoreCondFailReq miss latency
system.cpu1.dcache.StoreCondFailReq_mshr_miss_latency::.cpu1.data       561000                       # number of StoreCondFailReq MSHR miss cycles
system.cpu1.dcache.StoreCondFailReq_mshr_miss_latency::total       561000                       # number of StoreCondFailReq MSHR miss cycles
system.cpu1.dcache.StoreCondFailReq_avg_mshr_miss_latency::.cpu1.data          inf                       # average StoreCondFailReq mshr miss latency
system.cpu1.dcache.StoreCondFailReq_avg_mshr_miss_latency::total          inf                       # average StoreCondFailReq mshr miss latency
system.cpu1.dcache.SwapReq_hits::.cpu1.data         9420                       # number of SwapReq hits
system.cpu1.dcache.SwapReq_hits::total           9420                       # number of SwapReq hits
system.cpu1.dcache.SwapReq_misses::.cpu1.data        32000                       # number of SwapReq misses
system.cpu1.dcache.SwapReq_misses::total        32000                       # number of SwapReq misses
system.cpu1.dcache.SwapReq_miss_latency::.cpu1.data   2985809331                       # number of SwapReq miss cycles
system.cpu1.dcache.SwapReq_miss_latency::total   2985809331                       # number of SwapReq miss cycles
system.cpu1.dcache.SwapReq_accesses::.cpu1.data        41420                       # number of SwapReq accesses(hits+misses)
system.cpu1.dcache.SwapReq_accesses::total        41420                       # number of SwapReq accesses(hits+misses)
system.cpu1.dcache.SwapReq_miss_rate::.cpu1.data     0.772574                       # miss rate for SwapReq accesses
system.cpu1.dcache.SwapReq_miss_rate::total     0.772574                       # miss rate for SwapReq accesses
system.cpu1.dcache.SwapReq_avg_miss_latency::.cpu1.data 93306.541594                       # average SwapReq miss latency
system.cpu1.dcache.SwapReq_avg_miss_latency::total 93306.541594                       # average SwapReq miss latency
system.cpu1.dcache.SwapReq_mshr_hits::.cpu1.data            6                       # number of SwapReq MSHR hits
system.cpu1.dcache.SwapReq_mshr_hits::total            6                       # number of SwapReq MSHR hits
system.cpu1.dcache.SwapReq_mshr_misses::.cpu1.data        31994                       # number of SwapReq MSHR misses
system.cpu1.dcache.SwapReq_mshr_misses::total        31994                       # number of SwapReq MSHR misses
system.cpu1.dcache.SwapReq_mshr_miss_latency::.cpu1.data   2953784831                       # number of SwapReq MSHR miss cycles
system.cpu1.dcache.SwapReq_mshr_miss_latency::total   2953784831                       # number of SwapReq MSHR miss cycles
system.cpu1.dcache.SwapReq_mshr_miss_rate::.cpu1.data     0.772429                       # mshr miss rate for SwapReq accesses
system.cpu1.dcache.SwapReq_mshr_miss_rate::total     0.772429                       # mshr miss rate for SwapReq accesses
system.cpu1.dcache.SwapReq_avg_mshr_miss_latency::.cpu1.data 92323.086547                       # average SwapReq mshr miss latency
system.cpu1.dcache.SwapReq_avg_mshr_miss_latency::total 92323.086547                       # average SwapReq mshr miss latency
system.cpu1.dcache.tags.pwrStateResidencyTicks::UNDEFINED 144143464500                       # Cumulative time (in ticks) in various power states
system.cpu1.dcache.tags.tagsinuse           31.842490                       # Cycle average of tags in use
system.cpu1.dcache.tags.total_refs           17808074                       # Total number of references to valid blocks.
system.cpu1.dcache.tags.sampled_refs          1687894                       # Sample count of references to valid blocks.
system.cpu1.dcache.tags.avg_refs            10.550469                       # Average number of references to valid blocks.
system.cpu1.dcache.tags.warmup_cycle                0                       # Cycle when the warmup percentage was hit.
system.cpu1.dcache.tags.occ_blocks::.cpu1.data    31.842490                       # Average occupied blocks per requestor
system.cpu1.dcache.tags.occ_percent::.cpu1.data     0.995078                       # Average percentage of cache occupancy
system.cpu1.dcache.tags.occ_percent::total     0.995078                       # Average percentage of cache occupancy
system.cpu1.dcache.tags.occ_task_id_blocks::1024           27                       # Occupied blocks per task id
system.cpu1.dcache.tags.age_task_id_blocks_1024::1           27                       # Occupied blocks per task id
system.cpu1.dcache.tags.occ_task_id_percent::1024     0.843750                       # Percentage of cache occupancy per task id
system.cpu1.dcache.tags.tag_accesses         60674203                       # Number of tag accesses
system.cpu1.dcache.tags.data_accesses        60674203                       # Number of data accesses
system.cpu_clk_domain.clock                       500                       # Clock period in ticks
system.tol2bus.pwrStateResidencyTicks::UNDEFINED 144143464500                       # Cumulative time (in ticks) in various power states
system.tol2bus.trans_dist::ReadResp           1632665                       # Transaction distribution
system.tol2bus.trans_dist::WritebackDirty      4874984                       # Transaction distribution
system.tol2bus.trans_dist::WritebackClean      1052458                       # Transaction distribution
system.tol2bus.trans_dist::CleanEvict         4340836                       # Transaction distribution
system.tol2bus.trans_dist::HardPFReq          2198261                       # Transaction distribution
system.tol2bus.trans_dist::UpgradeReq            6232                       # Transaction distribution
system.tol2bus.trans_dist::SCUpgradeReq          3651                       # Transaction distribution
system.tol2bus.trans_dist::UpgradeResp           9883                       # Transaction distribution
system.tol2bus.trans_dist::SCUpgradeFailReq           57                       # Transaction distribution
system.tol2bus.trans_dist::UpgradeFailResp           57                       # Transaction distribution
system.tol2bus.trans_dist::ReadExReq          1882955                       # Transaction distribution
system.tol2bus.trans_dist::ReadExResp         1882956                       # Transaction distribution
system.tol2bus.trans_dist::ReadCleanReq         98524                       # Transaction distribution
system.tol2bus.trans_dist::ReadSharedReq      1534142                       # Transaction distribution
system.tol2bus.trans_dist::InvalidateReq         1592                       # Transaction distribution
system.tol2bus.trans_dist::InvalidateResp         1592                       # Transaction distribution
system.tol2bus.pkt_count_system.cpu0.icache.mem_side::system.l2.cpu_side       203032                       # Packet count per connected master and slave (bytes)
system.tol2bus.pkt_count_system.cpu0.dcache.mem_side::system.l2.cpu_side      5185341                       # Packet count per connected master and slave (bytes)
system.tol2bus.pkt_count_system.cpu1.icache.mem_side::system.l2.cpu_side        92538                       # Packet count per connected master and slave (bytes)
system.tol2bus.pkt_count_system.cpu1.dcache.mem_side::system.l2.cpu_side      5056538                       # Packet count per connected master and slave (bytes)
system.tol2bus.pkt_count::total              10537449                       # Packet count per connected master and slave (bytes)
system.tol2bus.pkt_size_system.cpu0.icache.mem_side::system.l2.cpu_side      8662656                       # Cumulative packet size per connected master and slave (bytes)
system.tol2bus.pkt_size_system.cpu0.dcache.mem_side::system.l2.cpu_side    220625984                       # Cumulative packet size per connected master and slave (bytes)
system.tol2bus.pkt_size_system.cpu1.icache.mem_side::system.l2.cpu_side      3948288                       # Cumulative packet size per connected master and slave (bytes)
system.tol2bus.pkt_size_system.cpu1.dcache.mem_side::system.l2.cpu_side    215183552                       # Cumulative packet size per connected master and slave (bytes)
system.tol2bus.pkt_size::total              448420480                       # Cumulative packet size per connected master and slave (bytes)
system.tol2bus.snoops                         8983396                       # Total snoops (count)
system.tol2bus.snoopTraffic                 155939200                       # Total snoop traffic (bytes)
system.tol2bus.snoop_fanout::samples         12491646                       # Request fanout histogram
system.tol2bus.snoop_fanout::mean            0.242713                       # Request fanout histogram
system.tol2bus.snoop_fanout::stdev           0.434242                       # Request fanout histogram
system.tol2bus.snoop_fanout::underflows             0      0.00%      0.00% # Request fanout histogram
system.tol2bus.snoop_fanout::0                9489504     75.97%     75.97% # Request fanout histogram
system.tol2bus.snoop_fanout::1                2972407     23.80%     99.76% # Request fanout histogram
system.tol2bus.snoop_fanout::2                  29729      0.24%    100.00% # Request fanout histogram
system.tol2bus.snoop_fanout::3                      6      0.00%    100.00% # Request fanout histogram
system.tol2bus.snoop_fanout::4                      0      0.00%    100.00% # Request fanout histogram
system.tol2bus.snoop_fanout::5                      0      0.00%    100.00% # Request fanout histogram
system.tol2bus.snoop_fanout::6                      0      0.00%    100.00% # Request fanout histogram
system.tol2bus.snoop_fanout::7                      0      0.00%    100.00% # Request fanout histogram
system.tol2bus.snoop_fanout::8                      0      0.00%    100.00% # Request fanout histogram
system.tol2bus.snoop_fanout::overflows              0      0.00%    100.00% # Request fanout histogram
system.tol2bus.snoop_fanout::min_value              0                       # Request fanout histogram
system.tol2bus.snoop_fanout::max_value              3                       # Request fanout histogram
system.tol2bus.snoop_fanout::total           12491646                       # Request fanout histogram
system.tol2bus.reqLayer0.occupancy         7024081250                       # Layer occupancy (ticks)
system.tol2bus.reqLayer0.utilization              4.9                       # Layer utilization (%)
system.tol2bus.respLayer1.occupancy        2599799231                       # Layer occupancy (ticks)
system.tol2bus.respLayer1.utilization             1.8                       # Layer utilization (%)
system.tol2bus.respLayer0.occupancy         101821387                       # Layer occupancy (ticks)
system.tol2bus.respLayer0.utilization             0.1                       # Layer utilization (%)
system.tol2bus.respLayer3.occupancy        2535945286                       # Layer occupancy (ticks)
system.tol2bus.respLayer3.utilization             1.8                       # Layer utilization (%)
system.tol2bus.respLayer2.occupancy          46503529                       # Layer occupancy (ticks)
system.tol2bus.respLayer2.utilization             0.0                       # Layer utilization (%)

---------- End Simulation Statistics   ----------
