Redirecting stdout to /vol1/msoyturk/gem5/results/sssp/epinions.el/prefetch_SignaturePathPrefetcher_BIPRP/output.txt
Redirecting stderr to /vol1/msoyturk/gem5/results/sssp/epinions.el/prefetch_SignaturePathPrefetcher_BIPRP/error.txt
gem5 Simulator System.  http://gem5.org
gem5 is copyrighted software; use the --copyright option for details.

gem5 compiled Apr 26 2020 13:32:47
gem5 started Apr 28 2020 03:18:07
gem5 executing on draco, pid 28867
command line: /vol1/msoyturk/gem5/build/RISCV/gem5.fast -re --outdir=/vol1/msoyturk/gem5/results/sssp/epinions.el/prefetch_SignaturePathPrefetcher_BIPRP --stdout-file=output.txt --stderr-file=error.txt /vol1/msoyturk/gem5/configs/example/my_se.py -c /vol1/msoyturk/gem5/gapbs/sssp -o '-f /vol1/msoyturk/gem5/gapbs/test/graphs/epinions.el' --caches --l1d_size=2kB --l1i_size=2kB --cpu-type=DerivO3CPU -n 4 --mem-size=512MB --l2cache --l2_size=4kB --l2-hwp-type=SignaturePathPrefetcher --l2-replacement-policy=BIPRP --l1i_mshrs=4 --l1d_mshrs=4 --l2_mshrs=20 --l1i_write_buffers=8 --l1d_write_buffers=8 --l2_write_buffers=8

info: Standard input is not a terminal, disabling listeners.
Warning: l2-hwp-type is set ( SignaturePathPrefetcher ), but the current l2 has a default Hardware Prefetcher of type <class 'm5.params.NullSimObject'> , using the specified by the flag option.
Global frequency set at 1000000000000 ticks per second
**** REAL SIMULATION ****
Read Time:           0.53930
Build Time:          0.11434
Graph has 75888 nodes and 508837 directed edges for degree: 6
    0          1     0.03204
    8          1     0.04756
   10          1     0.07709
   12          1     0.10112
   14          1     0.03844
   16          3     0.04986
   17          3     0.03849
   18          4     0.18564
   19          5     0.17667
   20          4     0.34684
   21         10     0.31297
   22         13     0.34413
   23         19     0.32461
   24         26     0.27601
   25         31     0.41722
   26         49     0.41512
   27         75     0.45317
   28         64     0.46388
   29         81     0.33913
   30        111     0.56800
   31        105     0.55592
   32        131     0.47982
   33        154     0.61315
   34        181     0.65669
   35        188     0.67227
   36        193     0.59716
   37        231     0.56953
   38        261     0.55942
   39        263     0.47930
   40        258     0.50282
   41        295     0.53808
   42        277     0.30040
   43        328     0.58741
   44        293     0.51215
   45        297     0.34244
   46        325     0.36400
   47        348     0.39882
   48        320     0.32018
   49        325     0.26914
   50        349     0.31826
   51        347     0.29007
   52        323     0.31886
   53        337     0.25742
   54        366     0.35945
   55        359     0.26672
   56        370     0.32091
   57        348     0.20138
   58        362     0.20165
   59        362     0.23806
   60        392     0.18086
   61        334     0.20601
   62        350     0.18035
   63        335     0.14806
   64        344     0.17857
   65        384     0.14969
   66        343     0.15006
   67        328     0.12473
   68        306     0.12237
   69        386     0.15851
   70        309     0.11686
   71        334     0.13059
   72        376     0.14632
   73        366     0.11346
   74        343     0.09962
   75        338     0.10147
   76        347     0.10952
   77        315     0.07520
   78        341     0.10489
   79        318     0.07744
   80        355     0.09633
   81        302     0.09779
   82        336     0.11179
   83        331     0.09825
   84        351     0.11831
   85        309     0.08134
   86        317     0.07231
   87        316     0.07977
   88        316     0.08950
   89        305     0.07806
   90        308     0.07277
   91        289     0.05787
   92        301     0.08519
   93        296     0.07881
   94        319     0.11816
   95        316     0.07750
   96        305     0.07368
   97        324     0.07959
   98        280     0.08246
   99        278     0.07416
  100        313     0.06773
  101        281     0.06631
  102        291     0.08217
  103        284     0.06356
  104        305     0.06502
  105        280     0.07882
  106        292     0.07200
  107        306     0.07472
  108        303     0.07862
  109        283     0.06872
  110        311     0.06470
  111        291     0.06711
  112        282     0.05842
  113        307     0.06663
  114        258     0.04763
  115        295     0.06897
  116        259     0.06321
  117        277     0.06460
  118        277     0.05904
  119        315     0.08000
  120        279     0.05212
  121        260     0.04634
  122        269     0.05003
  123        296     0.06026
  124        283     0.05075
  125        284     0.05477
  126        290     0.05826
  127        261     0.06617
  128        266     0.05243
  129        258     0.05905
  130        285     0.06276
  131        279     0.05229
  132        277     0.05948
  133        261     0.07853
  134        266     0.04767
  135        255     0.04457
  136        223     0.04186
  137        227     0.03918
  138        230     0.04570
  139        260     0.04437
  140        266     0.05646
  141        264     0.04875
  142        248     0.05897
  143        247     0.04972
  144        261     0.05856
  145        277     0.05679
  146        247     0.04799
  147        268     0.04811
  148        248     0.05359
  149        277     0.04448
  150        255     0.05215
  151        276     0.05409
  152        259     0.05023
  153        245     0.04886
  154        240     0.04195
  155        246     0.03940
  156        228     0.05089
  157        237     0.03994
  158        258     0.03939
  159        218     0.03606
  160        260     0.03801
  161        222     0.03148
  162        230     0.03376
  163        268     0.05064
  164        260     0.05002
  165        238     0.04703
  166        272     0.05424
  167        239     0.04385
  168        249     0.04537
  169        233     0.03820
  170        216     0.03498
  171        235     0.05156
  172        264     0.04906
  173        211     0.03551
  174        243     0.04456
  175        255     0.04970
  176        195     0.03787
  177        255     0.03451
  178        233     0.05608
  179        214     0.03019
  180        259     0.03622
  181        260     0.04146
  182        242     0.04007
  183        226     0.04832
  184        239     0.04815
  185        213     0.03077
  186        230     0.03292
  187        239     0.04638
  188        230     0.04209
  189        225     0.03280
  190        225     0.03678
  191        218     0.03746
  192        230     0.04075
  193        229     0.03217
  194        222     0.04429
  195        206     0.03771
  196        199     0.05797
  197        228     0.03480
  198        214     0.03753
  199        209     0.03964
  200        219     0.03567
  201        207     0.04049
  202        227     0.03170
  203        222     0.03002
  204        202     0.03709
  205        230     0.03485
  206        217     0.03917
  207        233     0.03515
  208        222     0.02893
  209        222     0.03279
  210        215     0.03788
  211        205     0.03458
  212        209     0.03532
  213        227     0.02955
  214        175     0.02523
  215        197     0.04259
  216        203     0.03770
  217        198     0.03428
  218        248     0.03738
  219        190     0.02640
  220        208     0.02706
  221        206     0.03295
  222        209     0.03452
  223        204     0.03713
  224        193     0.03027
  225        211     0.03822
  226        215     0.03663
  227        232     0.03453
  228        202     0.03663
  229        207     0.03616
  230        186     0.03479
  231        189     0.03186
  232        196     0.04725
  233        203     0.02596
  234        179     0.02899
  235        216     0.02692
  236        187     0.02813
  237        222     0.03857
  238        210     0.02354
  239        206     0.02724
  240        198     0.03498
  241        187     0.03238
  242        185     0.03572
  243        184     0.02920
  244        190     0.03097
  245        200     0.02886
  246        199     0.03513
  247        219     0.03469
  248        196     0.03022
  249        188     0.02751
  250        177     0.02975
  251        197     0.03077
  252        214     0.03606
  253        196     0.02663
  254        200     0.03336
  255        201     0.03034
  256        197     0.02911
  257        194     0.02527
  258        212     0.03053
  259        212     0.03562
  260        206     0.03313
  261        170     0.02731
  262        205     0.03361
  263        192     0.03984
  264        189     0.03180
  265        192     0.02718
  266        190     0.02484
  267        210     0.03625
  268        198     0.04036
  269        173     0.03188
  270        201     0.03855
  271        191     0.03761
  272        184     0.02874
  273        195     0.03163
  274        183     0.02796
  275        191     0.03864
  276        178     0.03009
  277        181     0.02646
  278        172     0.02649
  279        178     0.03269
  280        180     0.02918
  281        175     0.03079
  282        154     0.02415
  283        154     0.02253
  284        155     0.02468
  285        170     0.03138
  286        164     0.02455
  287        163     0.03370
  288        175     0.03109
  289        130     0.02275
  290        153     0.03279
  291        119     0.02452
  292        138     0.02973
  293        128     0.02281
  294        116     0.01975
  295        103     0.01658
  296        104     0.02339
  297         99     0.02163
  298         92     0.02110
  299        109     0.02640
  300         78     0.02748
  301         92     0.02413
  302         90     0.02294
  303         96     0.01591
  304         75     0.01912
  305         93     0.01600
  306         73     0.01950
  307         85     0.01360
  308         80     0.01736
  309         80     0.01807
  310         66     0.02094
  311         70     0.02405
  312         70     0.02135
  313         62     0.02916
  314         65     0.02332
  315         62     0.01890
  316         59     0.01875
  317         51     0.01665
  318         54     0.02285
  319         56     0.01484
  320         50     0.02297
  321         55     0.01383
  322         49     0.01576
  323         59     0.02986
  324         46     0.01273
  325         58     0.02506
  326         45     0.01425
  327         54     0.02124
  328         40     0.02236
  329         44     0.02028
  330         43     0.01773
  331         50     0.01641
  332         40     0.01347
  333         42     0.01365
  334         41     0.01559
  335         35     0.01821
  336         41     0.02277
  337         44     0.01607
  338         34     0.01961
  339         42     0.01880
  340         41     0.01544
  341         46     0.01521
  342         43     0.01158
  343         34     0.01213
  344         55     0.01478
  345         48     0.01954
  346         39     0.01557
  347         32     0.02251
  348         28     0.01785
  349         34     0.01601
  350         39     0.01593
  351         31     0.01218
  352         31     0.01234
  353         31     0.01918
  354         31     0.01694
  355         39     0.02024
  356         32     0.01815
  357         27     0.01445
  358         27     0.01521
  359         41     0.01550
  360         34     0.01569
  361         28     0.01324
  362         25     0.01557
  363         29     0.00958
  364         21     0.01083
  365         32     0.01595
  366         26     0.01079
  367         24     0.01238
  368         28     0.01112
  369         21     0.00920
  370         33     0.02537
  371         31     0.01486
  372         16     0.01080
  373         22     0.01210
  374         21     0.01098
  375         22     0.00949
  376         19     0.01681
  377         34     0.01496
  378         19     0.00989
  379         22     0.00960
  380         20     0.01288
  381         28     0.01338
  382         26     0.00947
  383         21     0.01307
  384         36     0.01989
  385         20     0.01436
  386         31     0.01616
  387         26     0.01311
  388         25     0.02679
  389         18     0.01299
  390         17     0.01378
  391         15     0.00780
  392         20     0.01164
  393         16     0.01113
  394         21     0.00940
  395         24     0.01425
  396         17     0.01112
  397         23     0.01558
  398         23     0.01328
  399         22     0.01483
  400         20     0.02119
  401         23     0.01370
  402         23     0.01110
  403         19     0.01635
  404         13     0.00853
  405         24     0.01419
  406         13     0.00786
  407         13     0.00926
  408         15     0.01090
  409         12     0.00737
  410         14     0.01068
  411         13     0.01271
  412         22     0.01306
  413         14     0.00890
  414         17     0.01046
  415         15     0.00960
  416         18     0.00903
  417         15     0.00791
  418         12     0.01564
  419         21     0.01416
  420         22     0.00889
  421          9     0.00694
  422         15     0.01307
  423         15     0.01373
  424         16     0.01517
  425         17     0.01070
  426         23     0.01194
  427         15     0.00791
  428         23     0.01195
  429         10     0.00738
  430         26     0.01406
  431          8     0.00669
  432         12     0.01468
  433         15     0.01402
  434         19     0.01617
  435         13     0.01010
  436         13     0.01206
  437          8     0.00751
  438         17     0.01104
  439          6     0.01187
  440         10     0.01306
  441         18     0.00896
  442         15     0.01345
  443         10     0.00758
  444         19     0.01052
  445         15     0.00795
  446         10     0.00716
  447         15     0.01421
  448         12     0.01513
  449         14     0.01193
  450         16     0.00988
  451         12     0.00946
  452         12     0.00751
  453          8     0.00669
  454         10     0.00732
  455          9     0.00729
  456          9     0.01078
  457         13     0.00715
  458          8     0.00663
  459          6     0.00924
  460         15     0.00770
  461         17     0.01020
  462          9     0.01422
  463         11     0.00794
  464          8     0.00652
  465         14     0.00894
  466         10     0.00753
  467          5     0.00621
  468         11     0.00707
  469         13     0.01029
  470         14     0.01747
  471          8     0.00897
  472         11     0.00715
  473          6     0.00617
  474          9     0.01144
  475         10     0.01025
  476          9     0.00747
  477          6     0.01230
  478         11     0.00734
  479          9     0.00968
  480          6     0.00918
  481          3     0.00586
  482         12     0.01217
  483         10     0.01160
  484          5     0.00640
  485          7     0.00697
  486          4     0.00944
  487          2     0.00592
  488          5     0.01610
  489          7     0.00678
  490         10     0.00709
  491          4     0.00612
  492          7     0.01750
  493          8     0.00682
  494          8     0.00697
  495          3     0.00953
  496          9     0.01130
  497          6     0.01035
  498         11     0.00727
  499          2     0.00546
  500          3     0.00560
  501          4     0.00593
  502          7     0.01080
  503          8     0.00674
  504          2     0.00807
  505          6     0.00645
  506          9     0.00822
  507         10     0.00732
  508         10     0.00715
  509          6     0.00662
  510          5     0.00623
  511          5     0.00600
  512          6     0.00617
  513          4     0.00604
  514          3     0.00534
  515          9     0.00673
  516          2     0.00868
  517          6     0.00671
  518          5     0.00945
  519          1     0.00582
  520          2     0.00640
  521          7     0.00687
  522          6     0.00686
  523          6     0.00646
  524          2     0.00562
  525          4     0.00586
  526          3     0.00999
  527          2     0.00548
  528          5     0.00974
  529          3     0.00610
  530          4     0.01098
  531          3     0.00621
  532          6     0.00612
  533          6     0.00610
  534          2     0.00547
  535          4     0.00597
  536          3     0.00626
  537          3     0.00898
  538          3     0.00601
  539          2     0.00857
  540          7     0.00692
  541          3     0.00598
  542          5     0.00686
  543          4     0.01353
  544          4     0.00639
  546          4     0.00875
  547          3     0.00662
  548          7     0.00996
  549          3     0.00651
  550          3     0.00765
  551          3     0.00683
  552          3     0.00904
  553          2     0.00887
  555          2     0.00667
  556          1     0.00589
  557          1     0.00695
  558          6     0.00779
  559          3     0.00747
  560          2     0.00627
  561          4     0.00607
  562          2     0.00605
  563          4     0.00949
  564          4     0.00659
  565          1     0.00559
  566          2     0.00645
  567          1     0.00558
  568          1     0.00594
  569          2     0.00562
  570          4     0.00605
  571          1     0.00532
  572          1     0.00930
  573          1     0.00907
  574          2     0.00576
  576          2     0.00676
  577          2     0.00591
  578          3     0.00556
  579          1     0.00574
  580          4     0.00572
  581          1     0.00545
  582          5     0.00646
  584          3     0.01100
  585          2     0.00621
  586          2     0.00670
  587          1     0.00539
  588          1     0.00564
  589          2     0.00553
  590          2     0.00569
  591          2     0.00536
  592          2     0.00574
  593          3     0.00615
  595          1     0.00572
  596          4     0.00683
  599          1     0.00643
  600          2     0.00631
  601          2     0.00658
  602          3     0.00702
  604          2     0.00646
  605          3     0.00867
  606          1     0.00605
  607          2     0.00617
  608          1     0.00603
  610          1     0.00560
  611          4     0.00923
  612          2     0.00618
  613          1     0.00577
  614          2     0.00583
  616          1     0.00556
  619          1     0.00561
  620          2     0.01630
  622          4     0.01085
  623          3     0.00649
  624          2     0.00612
  625          4     0.00896
  627          1     0.00613
  628          1     0.00564
  631          1     0.00569
  632          1     0.00554
  634          1     0.00497
  635          1     0.00525
  636          3     0.01273
  637          3     0.00609
  639          3     0.00574
  640          2     0.00559
  641          1     0.00551
  643          1     0.00537
  644          1     0.00860
  646          1     0.00567
  647          1     0.00536
  648          1     0.00548
  649          2     0.00865
  650          3     0.00599
  652          2     0.00590
  653          2     0.00544
  654          1     0.00512
  655          2     0.01012
  656          1     0.00852
  657          1     0.00516
  658          1     0.00586
  659          1     0.00574
  660          1     0.00519
  661          2     0.00574
  666          1     0.00564
  667          1     0.00582
  668          1     0.00568
  672          1     0.00605
  676          1     0.00561
  679          1     0.00536
  682          1     0.00543
  684          2     0.00573
  685          1     0.00549
  686          1     0.00590
  690          1     0.00603
  691          1     0.00588
  693          1     0.00557
  695          1     0.00538
  696          1     0.00870
  697          1     0.00538
  698          1     0.00554
  700          1     0.00527
  702          1     0.00565
  705          1     0.00582
  706          1     0.00558
  707          2     0.00868
  708          1     0.00564
  715          2     0.00619
  718          1     0.00535
  721          1     0.00592
  724          1     0.00577
  731          1     0.00553
  735          1     0.00595
  737          2     0.00566
  738          1     0.00577
  739          1     0.00566
  762          1     0.00535
  766          1     0.00568
  777          1     0.00841
  780          1     0.00962
  782          1     0.00549
  786          1     0.00606
  788          1     0.00569
  790          1     0.00897
  791          1     0.00537
  796          1     0.00586
  797          1     0.00561
  806          1     0.00612
  821          1     0.00565
  825          1     0.00592
  837          2     0.00555
  843          1     0.00547
  844          1     0.00558
  851          1     0.00581
  872          1     0.00595
  873          1     0.00581
  880          1     0.03759
  883          1     0.00600
  889          1     0.00561
  890          1     0.00557
  902          1     0.00648
  931          1     0.00691
 1072          1     0.00569
took 689 iterations
Trial Time:          0.04578
    0          1     0.02324
  155          1     0.04165
  182          1     0.01485
  186          1     0.01207
  193          1     0.01796
  206          1     0.02698
  212          1     0.06410
  213          1     0.00964
  219          1     0.00569
  222          1     0.00567
  223          1     0.00603
  229          1     0.01090
  231          1     0.03645
  232          2     0.08424
  233          4     0.06457
  234          5     0.09736
  235          5     0.08969
  236          5     0.13312
  237          7     0.35029
  238          3     0.09861
  239         12     0.33068
  240          8     0.15401
  241         17     0.40259
  242         20     0.21999
  243         19     0.25113
  244         34     0.32517
  245         45     0.46958
  246         61     0.50954
  247         68     0.56344
  248         97     0.42340
  249        112     0.50833
  250        128     0.70387
  251        151     0.88293
  252        171     0.41322
  253        169     0.41327
  254        217     0.72732
  255        201     0.64041
  256        235     0.48983
  257        243     0.43577
  258        245     0.45698
  259        297     0.41049
  260        283     0.44001
  261        288     0.48103
  262        311     0.42936
  263        309     0.38452
  264        302     0.35788
  265        329     0.40884
  266        319     0.31679
  267        327     0.30738
  268        347     0.32567
  269        361     0.29176
  270        336     0.23655
  271        371     0.40265
  272        341     0.26032
  273        334     0.26615
  274        364     0.19045
  275        356     0.27766
  276        373     0.22270
  277        372     0.21659
  278        342     0.23539
  279        376     0.25477
  280        405     0.20647
  281        345     0.16276
  282        368     0.14974
  283        388     0.18157
  284        325     0.14172
  285        349     0.16164
  286        337     0.13107
  287        349     0.12021
  288        336     0.14022
  289        321     0.11793
  290        338     0.12993
  291        339     0.11581
  292        340     0.10453
  293        363     0.08813
  294        358     0.12904
  295        331     0.09692
  296        359     0.09341
  297        353     0.09465
  298        333     0.11305
  299        334     0.12095
  300        298     0.08342
  301        323     0.09962
  302        327     0.07875
  303        298     0.07843
  304        330     0.10169
  305        295     0.08062
  306        305     0.09417
  307        335     0.08621
  308        307     0.08800
  309        318     0.08850
  310        297     0.08221
  311        289     0.07719
  312        301     0.08289
  313        323     0.08180
  314        267     0.05682
  315        319     0.08225
  316        293     0.08095
  317        306     0.07341
  318        302     0.08421
  319        290     0.08108
  320        264     0.06701
  321        281     0.07532
  322        314     0.06902
  323        288     0.06462
  324        298     0.08487
  325        318     0.07871
  326        286     0.07016
  327        314     0.06589
  328        307     0.07426
  329        262     0.05768
  330        249     0.06191
  331        285     0.05257
  332        275     0.05526
  333        291     0.06352
  334        274     0.05570
  335        311     0.07203
  336        280     0.05550
  337        287     0.06016
  338        260     0.05984
  339        236     0.05507
  340        291     0.06185
  341        296     0.04898
  342        271     0.05585
  343        270     0.05902
  344        268     0.06406
  345        284     0.06537
  346        254     0.04713
  347        289     0.04738
  348        258     0.05508
  349        259     0.06449
  350        278     0.05639
  351        271     0.04696
  352        263     0.05187
  353        275     0.05210
  354        258     0.04378
  355        264     0.04380
  356        250     0.04886
  357        247     0.05423
  358        265     0.04564
  359        262     0.05895
  360        255     0.05810
  361        255     0.04998
  362        254     0.03724
  363        247     0.05178
  364        212     0.04353
  365        281     0.07314
  366        249     0.05201
  367        243     0.05194
  368        257     0.04624
  369        270     0.05791
  370        285     0.05192
  371        235     0.04097
  372        272     0.03674
  373        253     0.05427
  374        260     0.04701
  375        234     0.04440
  376        242     0.03784
  377        229     0.03081
  378        250     0.04789
  379        226     0.04185
  380        212     0.03542
  381        266     0.03330
  382        249     0.04334
  383        238     0.03816
  384        254     0.04715
  385        233     0.02965
  386        262     0.04105
  387        237     0.04375
  388        233     0.04942
  389        244     0.04076
  390        233     0.03694
  391        242     0.03504
  392        236     0.03669
  393        248     0.04234
  394        236     0.03695
  395        293     0.04307
  396        227     0.06662
  397        238     0.04564
  398        226     0.03917
  399        244     0.03888
  400        235     0.03795
  401        248     0.05091
  402        243     0.02904
  403        222     0.05454
  404        219     0.03126
  405        231     0.03910
  406        232     0.04063
  407        226     0.03047
  408        240     0.04620
  409        215     0.03390
  410        211     0.03541
  411        224     0.04492
  412        220     0.03212
  413        227     0.03177
  414        226     0.04458
  415        201     0.03694
  416        229     0.04178
  417        208     0.04828
  418        210     0.02905
  419        219     0.03436
  420        215     0.03281
  421        216     0.03786
  422        241     0.04967
  423        220     0.03685
  424        229     0.03397
  425        212     0.03102
  426        230     0.03430
  427        204     0.02662
  428        218     0.03990
  429        229     0.03176
  430        193     0.03565
  431        200     0.03508
  432        238     0.04026
  433        223     0.03004
  434        188     0.03038
  435        212     0.03465
  436        203     0.03071
  437        211     0.03280
  438        196     0.03459
  439        225     0.02944
  440        210     0.03644
  441        215     0.03761
  442        190     0.02846
  443        208     0.03089
  444        219     0.03355
  445        196     0.03222
  446        195     0.03110
  447        198     0.03200
  448        229     0.03556
  449        177     0.02224
  450        196     0.03320
  451        214     0.03500
  452        193     0.02933
  453        189     0.03516
  454        198     0.03060
  455        188     0.03272
  456        207     0.03133
  457        193     0.02961
  458        214     0.03186
  459        198     0.03387
  460        217     0.02827
  461        202     0.03391
  462        187     0.03123
  463        186     0.03476
  464        202     0.02453
  465        172     0.03032
  466        195     0.03249
  467        187     0.02707
  468        206     0.02490
  469        204     0.03524
  470        185     0.03526
  471        210     0.03137
  472        195     0.02714
  473        212     0.02380
  474        213     0.03676
  475        184     0.02475
  476        192     0.02742
  477        208     0.03069
  478        170     0.02745
  479        179     0.02759
  480        195     0.03510
  481        218     0.03213
  482        167     0.02751
  483        204     0.03401
  484        182     0.03934
  485        195     0.03012
  486        195     0.02945
  487        206     0.03051
  488        198     0.02689
  489        175     0.03319
  490        199     0.03268
  491        190     0.03675
  492        206     0.02871
  493        172     0.02957
  494        164     0.02613
  495        180     0.02301
  496        180     0.02675
  497        166     0.03085
  498        170     0.02885
  499        187     0.02712
  500        198     0.02826
  501        183     0.03205
  502        150     0.03000
  503        179     0.03304
  504        144     0.02286
  505        150     0.02624
  506        147     0.03836
  507        139     0.02574
  508        129     0.02218
  509        146     0.02868
  510        131     0.02994
  511        132     0.04014
  512        123     0.03130
  513        113     0.02465
  514        116     0.02341
  515        111     0.02137
  516        113     0.02447
  517        103     0.02293
  518         99     0.01716
  519         90     0.01840
  520         87     0.02475
  521         87     0.02295
  522         89     0.01930
  523         91     0.02399
  524         88     0.01570
  525         70     0.01695
  526         76     0.02178
  527         64     0.01949
  528         74     0.02364
  529         73     0.02041
  530         81     0.01517
  531         66     0.01795
  532         64     0.02392
  533         61     0.02514
  534         63     0.02215
  535         58     0.01866
  536         60     0.01540
  537         59     0.02573
  538         44     0.01300
  539         57     0.01778
  540         43     0.01631
  541         53     0.03260
  542         42     0.01184
  543         48     0.02309
  544         52     0.02235
  545         44     0.01614
  546         48     0.01409
  547         33     0.01205
  548         59     0.01634
  549         41     0.01792
  550         46     0.01307
  551         41     0.01424
  552         36     0.01497
  553         41     0.01708
  554         44     0.02635
  555         47     0.01615
  556         48     0.01829
  557         32     0.01784
  558         38     0.01460
  559         47     0.01815
  560         38     0.01667
  561         34     0.01803
  562         46     0.01937
  563         45     0.01208
  564         39     0.02031
  565         38     0.01384
  566         32     0.01697
  567         37     0.01592
  568         32     0.01783
  569         28     0.01392
  570         41     0.01378
  571         25     0.01397
  572         27     0.01669
  573         31     0.01137
  574         29     0.01780
  575         28     0.01141
  576         35     0.02122
  577         25     0.01385
  578         36     0.01665
  579         30     0.01402
  580         30     0.01006
  581         36     0.01728
  582         33     0.01329
  583         43     0.01794
  584         31     0.01313
  585         27     0.01364
  586         22     0.00907
  587         21     0.01393
  588         23     0.01477
  589         23     0.01144
  590         24     0.01103
  591         22     0.01094
  592         29     0.01546
  593         14     0.01244
  594         33     0.01230
  595         21     0.01462
  596         19     0.00883
  597         20     0.01416
  598         19     0.01242
  599         33     0.01379
  600         22     0.01259
  601         26     0.02233
  602         23     0.01689
  603         20     0.01144
  604         20     0.01626
  605         31     0.01671
  606         11     0.01139
  607         29     0.02155
  608         24     0.01003
  609         23     0.01468
  610         20     0.00860
  611         14     0.01320
  612         31     0.01202
  613         17     0.01175
  614         22     0.00913
  615         18     0.01146
  616         20     0.01419
  617         21     0.01142
  618         18     0.01120
  619         19     0.02062
  620         17     0.01109
  621         23     0.01375
  622         19     0.01617
  623         16     0.00873
  624         15     0.01496
  625         19     0.01647
  626         20     0.00916
  627         18     0.01359
  628         16     0.01265
  629         19     0.01425
  630         11     0.00902
  631         13     0.00789
  632         12     0.00830
  633         19     0.01410
  634         17     0.00905
  635         14     0.00847
  636         15     0.00964
  637         21     0.01158
  638         19     0.01755
  639          9     0.00722
  640         16     0.00900
  641         13     0.00817
  642         22     0.00907
  643         18     0.01781
  644         12     0.00766
  645         17     0.01035
  646         23     0.01226
  647         12     0.01344
  648         15     0.00879
  649         16     0.00852
  650         14     0.00791
  651         15     0.00988
  652         15     0.00929
  653         12     0.01740
  654         16     0.00933
  655         14     0.00945
  656         16     0.01445
  657          9     0.00865
  658         14     0.00802
  659          7     0.00698
  660          6     0.00661
  661          9     0.01098
  662         15     0.01317
  663         15     0.01084
  664         19     0.00839
  665         15     0.00805
  666         15     0.00726
  667          5     0.01048
  668         12     0.00835
  669          9     0.01000
  670         11     0.01029
  671         12     0.01137
  672         14     0.01055
  673         15     0.01009
  674         13     0.01017
  675         19     0.00869
  676          6     0.00705
  677          9     0.00679
  678         12     0.00941
  679         13     0.01168
  680         12     0.00864
  681          6     0.00645
  682          4     0.00635
  683         10     0.01446
  684          8     0.00714
  685         11     0.00764
  686         10     0.00757
  687         10     0.00732
  688         11     0.00685
  689         22     0.01586
  690          9     0.00901
  691         12     0.01385
  692          6     0.00758
  693          5     0.00665
  694         17     0.01816
  695          6     0.00870
  696          5     0.00605
  697          8     0.00695
  698          3     0.00601
  699         12     0.01307
  700          3     0.00654
  701          7     0.00637
  702          6     0.00788
  703          9     0.01204
  704          7     0.00761
  705          6     0.00661
  706          7     0.01414
  707          5     0.00646
  708          6     0.01027
  709          7     0.01155
  710          8     0.00804
  711          8     0.00713
  712          7     0.00692
  713          4     0.01638
  714          6     0.00674
  715          6     0.00662
  716          4     0.01186
  717          7     0.00981
  718          4     0.00699
  719         13     0.00895
  720          7     0.00721
  721          8     0.00679
  722          8     0.00991
  723          6     0.00617
  724          8     0.00667
  725          3     0.00991
  726          8     0.00718
  727          3     0.00645
  728          5     0.00629
  729          3     0.00556
  730          3     0.00827
  731          6     0.00621
  732          7     0.00621
  733          5     0.00666
  734          7     0.01078
  735          7     0.00689
  736          7     0.00849
  737          2     0.00628
  738          5     0.00641
  739          4     0.00683
  740          3     0.00596
  741          5     0.00627
  742          3     0.00713
  743          2     0.00556
  744          4     0.00632
  745          2     0.00587
  746          3     0.00592
  747          8     0.00959
  748          2     0.00596
  749          5     0.00664
  750          4     0.00566
  751          3     0.00868
  752          2     0.00590
  753          4     0.00655
  754          1     0.00554
  755          4     0.00622
  756          3     0.01007
  757          4     0.00630
  759          6     0.00931
  760          1     0.00574
  761          6     0.01134
  762          4     0.00660
  763          3     0.00641
  764          2     0.00597
  765          4     0.01132
  766          4     0.00648
  767          5     0.01500
  768          2     0.00619
  769          5     0.00778
  770          2     0.00590
  771          6     0.01176
  772          3     0.00544
  773          3     0.00562
  774          2     0.00578
  775          2     0.00568
  776          4     0.00584
  777          4     0.00615
  779          1     0.00566
  780          4     0.00636
  781          2     0.00805
  782          3     0.00567
  783          2     0.00558
  785          2     0.00717
  786          1     0.00545
  787          2     0.00556
  788          3     0.00569
  790          1     0.00560
  791          2     0.00565
  792          3     0.00822
  794          3     0.01111
  795          3     0.00564
  796          2     0.00573
  797          2     0.00667
  798          1     0.00631
  799          3     0.00581
  800          4     0.01223
  801          3     0.00592
  802          1     0.00545
  803          2     0.00634
  804          1     0.00594
  805          3     0.00593
  806          1     0.00595
  807          3     0.00631
  809          3     0.00628
  810          1     0.00511
  811          3     0.00649
  812          2     0.00579
  813          4     0.00625
  814          2     0.00546
  815          1     0.00800
  816          1     0.00616
  819          2     0.00565
  821          1     0.00579
  822          2     0.00581
  823          3     0.00578
  824          2     0.00548
  826          5     0.01369
  827          1     0.00568
  828          2     0.00600
  829          2     0.00634
  830          2     0.00584
  831          2     0.00869
  833          1     0.00596
  835          1     0.00631
  836          1     0.00591
  839          1     0.00541
  841          3     0.00600
  842          1     0.00600
  843          3     0.00812
  844          2     0.00594
  845          3     0.00851
  846          2     0.00982
  847          1     0.00552
  848          1     0.00563
  849          1     0.00605
  850          5     0.01119
  852          1     0.00905
  853          2     0.00585
  856          1     0.00536
  857          1     0.00562
  858          2     0.00577
  861          1     0.00610
  862          1     0.00585
  864          4     0.00559
  865          1     0.00529
  866          3     0.00841
  870          2     0.00818
  871          3     0.00600
  872          2     0.00608
  873          1     0.00561
  876          2     0.03778
  877          3     0.00550
  879          1     0.00579
  882          3     0.00608
  885          1     0.00581
  887          2     0.00547
  894          1     0.00588
  901          1     0.00588
  902          1     0.01042
  903          2     0.00514
  907          2     0.00549
  909          1     0.00575
  911          1     0.00507
  912          1     0.00548
  913          1     0.00548
  915          1     0.00536
  916          1     0.00545
  917          1     0.00604
  918          1     0.00541
  922          1     0.00587
  924          1     0.00555
  925          1     0.00620
  927          2     0.00594
  935          1     0.00508
  936          1     0.00569
  938          1     0.00558
  942          2     0.00571
  951          1     0.00602
  952          1     0.00594
  953          1     0.00553
  955          1     0.00586
  956          1     0.00521
  957          1     0.00571
  972          1     0.00599
  980          1     0.00604
  995          1     0.00986
  996          1     0.00733
 1005          1     0.01001
 1006          1     0.00558
 1009          1     0.00610
 1011          1     0.00543
 1012          1     0.00593
 1015          1     0.00560
 1018          1     0.00558
 1019          1     0.00578
 1042          1     0.00558
 1043          2     0.00562
 1049          1     0.00550
 1052          1     0.00558
 1058          1     0.00556
 1062          1     0.00556
 1086          2     0.01367
 1089          1     0.00522
 1094          1     0.00567
 1105          1     0.00565
 1112          1     0.00527
 1123          1     0.00556
 1137          1     0.00617
 1278          1     0.00536
took 690 iterations
Trial Time:          0.04543
    0          1     0.05570
    4          2     0.17721
    5          1     0.02703
    7          1     0.05343
    8          5     0.12137
    9          1     0.05598
   11          4     0.21842
   12          4     0.10921
   13          6     0.14342
   14          6     0.24384
   15         13     0.18155
   16          9     0.26861
   17         17     0.22605
   18         22     0.33783
   19         23     0.35350
   20         31     0.36680
   21         41     0.34037
   22         52     0.87274
   23         83     0.55347
   24        105     0.79117
   25        121     0.54064
   26        123     0.54167
   27        182     0.52382
   28        167     0.47729
   29        200     0.69023
   30        231     0.52041
   31        207     0.38991
   32        241     0.54405
   33        233     0.74133
   34        309     0.48619
   35        332     0.63470
   36        280     0.46795
   37        310     0.46016
   38        323     0.47747
   39        315     0.40364
   40        335     0.29313
   41        319     0.46047
   42        361     0.31990
   43        360     0.27004
   44        355     0.28800
   45        340     0.28168
   46        382     0.31063
   47        331     0.26565
   48        360     0.21724
   49        349     0.25534
   50        317     0.19867
   51        341     0.30778
   52        376     0.21882
   53        348     0.19139
   54        361     0.21782
   55        355     0.17439
   56        341     0.23518
   57        365     0.14307
   58        356     0.17644
   59        374     0.16085
   60        332     0.15701
   61        353     0.18143
   62        348     0.11273
   63        372     0.12465
   64        332     0.11829
   65        307     0.13663
   66        343     0.12513
   67        341     0.12415
   68        334     0.10715
   69        339     0.10372
   70        319     0.10795
   71        337     0.10129
   72        297     0.07555
   73        321     0.09774
   74        327     0.09892
   75        336     0.10063
   76        313     0.08900
   77        337     0.10700
   78        312     0.10207
   79        348     0.10782
   80        316     0.08059
   81        315     0.10000
   82        313     0.07392
   83        310     0.07661
   84        282     0.06901
   85        320     0.08062
   86        316     0.09126
   87        296     0.07369
   88        312     0.06948
   89        275     0.06923
   90        288     0.08532
   91        319     0.08505
   92        285     0.06511
   93        289     0.07715
   94        310     0.08613
   95        306     0.07303
   96        276     0.07669
   97        317     0.07515
   98        290     0.07616
   99        303     0.06804
  100        282     0.08361
  101        295     0.07525
  102        277     0.07333
  103        275     0.06156
  104        306     0.06349
  105        266     0.06667
  106        284     0.04974
  107        289     0.07691
  108        291     0.07237
  109        265     0.05749
  110        301     0.06388
  111        297     0.06232
  112        268     0.05902
  113        294     0.05365
  114        319     0.06273
  115        302     0.06610
  116        275     0.05294
  117        290     0.07187
  118        291     0.06818
  119        267     0.06470
  120        270     0.04903
  121        271     0.06212
  122        257     0.04628
  123        257     0.06390
  124        284     0.04166
  125        244     0.04546
  126        299     0.06727
  127        256     0.06069
  128        248     0.05670
  129        259     0.06591
  130        261     0.04763
  131        279     0.04991
  132        244     0.04369
  133        248     0.05153
  134        259     0.06386
  135        251     0.05895
  136        264     0.05672
  137        238     0.04294
  138        221     0.03581
  139        235     0.06871
  140        271     0.05495
  141        260     0.04502
  142        253     0.04527
  143        229     0.05558
  144        279     0.04465
  145        262     0.05822
  146        224     0.04291
  147        255     0.05138
  148        258     0.04368
  149        261     0.04924
  150        246     0.05112
  151        228     0.03687
  152        264     0.04486
  153        226     0.03200
  154        235     0.04052
  155        257     0.04764
  156        246     0.04034
  157        244     0.03868
  158        231     0.04051
  159        263     0.04263
  160        248     0.03035
  161        240     0.05540
  162        250     0.04076
  163        250     0.04763
  164        231     0.03721
  165        238     0.03985
  166        231     0.03280
  167        221     0.04071
  168        243     0.03389
  169        226     0.05819
  170        250     0.04715
  171        228     0.05364
  172        209     0.03298
  173        258     0.05756
  174        244     0.03533
  175        236     0.03564
  176        247     0.04815
  177        260     0.03712
  178        235     0.02777
  179        249     0.04671
  180        236     0.04256
  181        231     0.04704
  182        216     0.03112
  183        224     0.03111
  184        218     0.03259
  185        219     0.03777
  186        236     0.04341
  187        242     0.04021
  188        222     0.03632
  189        202     0.03231
  190        237     0.03241
  191        234     0.03933
  192        225     0.03494
  193        185     0.03522
  194        182     0.03619
  195        209     0.03780
  196        209     0.03982
  197        214     0.03236
  198        233     0.03307
  199        210     0.02994
  200        214     0.03433
  201        228     0.03566
  202        215     0.03539
  203        236     0.04125
  204        189     0.04004
  205        217     0.03588
  206        209     0.03201
  207        202     0.04330
  208        205     0.03037
  209        208     0.03330
  210        221     0.03384
  211        202     0.03128
  212        205     0.03277
  213        215     0.04310
  214        211     0.03088
  215        199     0.03794
  216        201     0.02936
  217        195     0.04159
  218        205     0.03295
  219        187     0.03493
  220        239     0.03708
  221        233     0.03876
  222        195     0.03186
  223        177     0.03059
  224        192     0.03906
  225        197     0.04355
  226        172     0.03238
  227        215     0.03764
  228        205     0.03029
  229        212     0.03254
  230        210     0.02913
  231        193     0.03133
  232        195     0.02961
  233        193     0.02823
  234        229     0.03508
  235        193     0.04497
  236        211     0.02778
  237        220     0.03485
  238        199     0.03123
  239        180     0.03177
  240        180     0.02961
  241        182     0.02942
  242        184     0.02659
  243        188     0.04064
  244        199     0.02717
  245        170     0.02389
  246        221     0.02904
  247        188     0.03425
  248        178     0.02807
  249        204     0.02749
  250        192     0.02485
  251        221     0.04438
  252        207     0.03308
  253        199     0.02416
  254        215     0.03924
  255        184     0.03928
  256        186     0.02579
  257        198     0.02810
  258        202     0.03677
  259        216     0.03550
  260        189     0.03048
  261        184     0.03530
  262        186     0.03430
  263        198     0.03243
  264        176     0.02741
  265        179     0.02694
  266        209     0.03500
  267        162     0.03500
  268        193     0.02936
  269        190     0.03973
  270        173     0.02997
  271        213     0.03077
  272        184     0.02916
  273        185     0.03460
  274        182     0.02489
  275        163     0.03237
  276        156     0.03078
  277        164     0.02082
  278        147     0.03031
  279        168     0.03558
  280        132     0.02258
  281        153     0.01989
  282        169     0.02668
  283        165     0.03407
  284        150     0.02207
  285        131     0.03122
  286        122     0.02256
  287        133     0.02072
  288        126     0.02604
  289        104     0.02182
  290        112     0.03084
  291         98     0.02009
  292         90     0.01692
  293         99     0.02697
  294        115     0.02055
  295        110     0.02255
  296         86     0.01934
  297         77     0.01556
  298         74     0.01473
  299         87     0.02529
  300         82     0.02364
  301         74     0.01723
  302         72     0.01614
  303         77     0.02220
  304         71     0.02082
  305         56     0.01760
  306         66     0.01505
  307         69     0.02568
  308         54     0.01948
  309         63     0.02057
  310         63     0.02124
  311         79     0.03163
  312         58     0.02092
  313         46     0.01978
  314         64     0.02716
  315         45     0.01675
  316         56     0.01683
  317         42     0.01640
  318         44     0.01247
  319         45     0.02218
  320         41     0.01841
  321         39     0.01307
  322         33     0.01809
  323         51     0.01866
  324         51     0.01783
  325         47     0.02067
  326         44     0.02755
  327         50     0.01935
  328         50     0.02453
  329         38     0.01885
  330         38     0.01261
  331         39     0.01526
  332         37     0.01825
  333         45     0.02087
  334         39     0.02052
  335         45     0.02853
  336         33     0.01582
  337         46     0.01865
  338         43     0.01349
  339         37     0.01693
  340         42     0.01888
  341         41     0.01246
  342         44     0.01721
  343         27     0.01891
  344         25     0.00874
  345         38     0.01709
  346         30     0.01192
  347         40     0.02177
  348         29     0.00948
  349         21     0.01268
  350         39     0.01711
  351         31     0.01498
  352         27     0.01236
  353         21     0.01486
  354         35     0.02067
  355         35     0.01235
  356         32     0.01675
  357         23     0.00850
  358         27     0.01457
  359         32     0.01417
  360         32     0.01426
  361         31     0.01290
  362         22     0.00997
  363         27     0.01952
  364         23     0.01069
  365         28     0.01428
  366         19     0.01507
  367         36     0.01617
  368         29     0.01261
  369         27     0.00988
  370         19     0.01207
  371         16     0.00841
  372         20     0.01197
  373         19     0.01579
  374         20     0.01575
  375         23     0.01272
  376         18     0.01182
  377         27     0.01114
  378         30     0.01515
  379         22     0.00925
  380         17     0.01987
  381         33     0.01912
  382         30     0.02471
  383         30     0.01172
  384         24     0.02149
  385         18     0.01295
  386         16     0.00829
  387         28     0.00955
  388         17     0.01300
  389         22     0.01606
  390         20     0.01158
  391         12     0.01122
  392         19     0.01277
  393         20     0.00916
  394         26     0.01285
  395         12     0.01165
  396         11     0.01208
  397         18     0.00821
  398         21     0.01203
  399         21     0.01655
  400         17     0.01333
  401         13     0.00780
  402         14     0.00875
  403         21     0.01297
  404         16     0.01034
  405         19     0.01286
  406         10     0.00739
  407         18     0.01103
  408         13     0.00878
  409         13     0.01391
  410         14     0.01027
  411         22     0.01277
  412         17     0.01566
  413         15     0.01384
  414         22     0.01192
  415         15     0.00944
  416         18     0.00924
  417         19     0.00805
  418         14     0.00998
  419         19     0.01392
  420         10     0.00714
  421         16     0.00731
  422         11     0.00762
  423         13     0.00760
  424         25     0.01478
  425         15     0.01275
  426         17     0.01568
  427         17     0.01001
  428         11     0.01156
  429         14     0.01264
  430         11     0.01205
  431         17     0.00813
  432         14     0.00797
  433         15     0.01026
  434         17     0.01036
  435         13     0.01167
  436         20     0.01733
  437          4     0.00648
  438          9     0.00919
  439         15     0.01121
  440         12     0.01131
  441          7     0.00660
  442         13     0.01421
  443         15     0.00780
  444          7     0.00660
  445         15     0.01275
  446         12     0.00767
  447         12     0.00973
  448         15     0.00735
  449          9     0.00913
  450         14     0.00770
  451          9     0.01247
  452         13     0.00847
  453          9     0.00727
  454          9     0.00962
  455          6     0.00651
  456         12     0.01042
  457         11     0.00856
  458         18     0.00958
  459         11     0.00664
  460         14     0.00787
  461          8     0.00711
  462         13     0.00955
  463          8     0.01755
  464          9     0.00663
  465         13     0.01132
  466          7     0.00678
  467          5     0.01250
  468          9     0.01219
  469          6     0.00904
  470         10     0.00633
  471          6     0.00675
  472         15     0.01498
  473          7     0.01013
  474         14     0.01499
  475          7     0.00664
  476          9     0.00744
  477          3     0.00583
  478          5     0.00664
  479          6     0.00789
  480          7     0.00643
  481          6     0.00922
  482          4     0.00657
  483          2     0.00977
  484          7     0.00903
  485          7     0.01384
  486          8     0.00740
  487          9     0.00712
  488          6     0.00665
  489          7     0.00688
  490          4     0.00649
  491         12     0.01388
  492          4     0.00675
  493          5     0.00618
  494          7     0.01224
  495          7     0.00673
  496          7     0.01570
  497          7     0.00658
  498          7     0.00622
  499          6     0.00674
  500          7     0.00905
  501          8     0.00865
  502          3     0.00628
  503          7     0.00676
  504          7     0.00656
  505          7     0.00635
  506          2     0.00590
  507          4     0.00636
  508          5     0.01073
  509          5     0.00639
  510          2     0.00575
  511          4     0.00642
  512          4     0.00629
  513          7     0.00700
  514          4     0.00760
  515          6     0.00721
  516          4     0.00610
  517          5     0.00905
  518          2     0.00540
  519          1     0.00576
  520          2     0.00592
  521          7     0.00683
  522          4     0.00639
  523          7     0.01102
  524          2     0.00574
  525          6     0.00673
  527          2     0.00593
  528          5     0.01153
  529          2     0.00571
  530          5     0.00590
  531          6     0.00759
  532          6     0.01270
  533          3     0.00618
  534          4     0.00584
  535          3     0.00701
  536          4     0.00638
  537          2     0.00580
  538          3     0.01343
  539          3     0.00678
  540          6     0.00783
  541          2     0.00612
  542          5     0.00983
  543          4     0.00637
  544          2     0.00933
  545          4     0.00977
  546          4     0.00599
  547          2     0.00592
  548          2     0.00602
  549          2     0.00592
  550          3     0.00608
  551          4     0.00637
  553          3     0.00574
  554          4     0.00579
  556          2     0.00840
  558          3     0.00610
  559          5     0.00979
  560          3     0.00610
  561          4     0.00856
  562          1     0.00600
  563          1     0.00607
  564          2     0.00588
  565          1     0.00971
  566          5     0.00702
  567          1     0.00569
  568          1     0.00712
  569          1     0.00615
  570          1     0.00604
  571          1     0.00579
  572          1     0.00569
  573          2     0.00824
  574          1     0.00594
  575          1     0.00529
  576          1     0.00552
  577          2     0.00628
  578          3     0.01015
  579          3     0.00854
  580          1     0.00595
  582          2     0.00626
  583          4     0.00691
  584          2     0.00550
  585          1     0.00551
  586          4     0.00609
  587          1     0.00545
  588          2     0.00585
  590          2     0.00566
  591          1     0.00622
  594          3     0.00602
  595          3     0.00645
  596          1     0.00560
  597          3     0.00543
  598          1     0.00587
  599          1     0.00587
  600          4     0.00733
  601          2     0.00565
  602          4     0.00656
  604          1     0.00571
  606          2     0.00622
  607          3     0.00641
  609          4     0.04027
  610          1     0.00854
  612          1     0.00534
  614          1     0.00537
  616          1     0.00594
  617          3     0.00649
  619          3     0.00626
  621          3     0.00608
  623          2     0.00598
  624          1     0.00707
  625          1     0.00575
  626          2     0.00902
  628          1     0.00619
  629          2     0.00613
  630          2     0.00571
  631          2     0.01007
  632          2     0.00602
  633          1     0.00587
  636          2     0.01043
  637          3     0.00836
  638          1     0.00611
  639          2     0.00606
  641          3     0.00628
  642          1     0.00561
  644          2     0.00868
  647          1     0.00588
  648          3     0.00870
  649          2     0.00570
  650          1     0.00613
  652          3     0.00605
  655          1     0.01107
  656          2     0.00650
  661          1     0.00590
  662          1     0.00547
  663          1     0.00557
  665          1     0.00533
  667          2     0.00591
  673          1     0.00556
  677          1     0.00569
  679          2     0.00554
  680          1     0.00598
  681          1     0.00625
  684          1     0.00570
  685          1     0.01123
  690          1     0.00710
  691          1     0.00682
  694          1     0.00683
  695          1     0.00711
  696          1     0.00904
  697          1     0.00598
  698          1     0.00608
  699          2     0.00631
  700          1     0.00623
  703          1     0.00591
  705          1     0.00603
  713          1     0.00558
  717          1     0.00656
  718          1     0.00589
  719          1     0.00573
  721          1     0.00586
  725          1     0.00566
  726          1     0.00597
  727          1     0.00629
  732          1     0.00615
  735          1     0.00588
  739          1     0.00594
  755          1     0.00596
  758          1     0.00575
  766          1     0.00949
  776          1     0.00945
  777          1     0.00610
  779          1     0.00884
  782          1     0.00653
  785          1     0.00666
  786          1     0.00715
  792          1     0.00666
  793          1     0.00643
  795          1     0.00622
  814          1     0.00621
  825          1     0.00579
  826          1     0.00578
  832          1     0.00593
  833          1     0.00543
  836          1     0.00628
  846          1     0.00626
  869          1     0.01312
  872          2     0.00570
  873          1     0.00540
  883          1     0.00552
  884          1     0.00596
  902          1     0.00579
  920          1     0.00648
 1061          1     0.00576
took 686 iterations
Trial Time:          0.04606
    0          1     0.04170
    1          1     0.09012
    3          1     0.06201
    4          1     0.00604
    6          1     0.02353
    7          1     0.06599
    8          1     0.01892
    9          1     0.01887
   10          1     0.01004
   12          1     0.00939
   14          2     0.19005
   15          2     0.01614
   16          2     0.04350
   17          1     0.01202
   18          4     0.63055
   19          9     0.17058
   20         12     0.07907
   21          9     0.17917
   22         14     0.53493
   23         10     0.12042
   24         13     0.16288
   25         18     0.26754
   26         28     0.36001
   27         33     0.57027
   28         49     0.55710
   29         73     0.63181
   30         79     0.43706
   31        101     0.59219
   32         97     0.52788
   33        123     0.58593
   34        153     0.55453
   35        182     0.58628
   36        197     0.53938
   37        217     0.65042
   38        253     0.57602
   39        263     0.57237
   40        275     0.56610
   41        293     0.57209
   42        279     0.52742
   43        334     0.62791
   44        325     0.41415
   45        334     0.42680
   46        332     0.41660
   47        321     0.33676
   48        365     0.44498
   49        362     0.27704
   50        356     0.33414
   51        379     0.30996
   52        347     0.22624
   53        361     0.41173
   54        371     0.21694
   55        374     0.21848
   56        381     0.23644
   57        366     0.21384
   58        364     0.22177
   59        356     0.22420
   60        370     0.19715
   61        374     0.20966
   62        348     0.14559
   63        335     0.17819
   64        329     0.13968
   65        373     0.17898
   66        357     0.14824
   67        351     0.12091
   68        372     0.12310
   69        319     0.13266
   70        331     0.15299
   71        347     0.12387
   72        330     0.11434
   73        346     0.12810
   74        349     0.11692
   75        325     0.12083
   76        296     0.09921
   77        362     0.11939
   78        329     0.10911
   79        319     0.10585
   80        319     0.09639
   81        314     0.09712
   82        294     0.08507
   83        316     0.09727
   84        334     0.11000
   85        352     0.11318
   86        343     0.08496
   87        327     0.08231
   88        309     0.07686
   89        311     0.08020
   90        302     0.09207
   91        326     0.08656
   92        290     0.07037
   93        301     0.07731
   94        336     0.09042
   95        308     0.09915
   96        282     0.08043
   97        295     0.06746
   98        322     0.07655
   99        284     0.07871
  100        301     0.07239
  101        287     0.06445
  102        316     0.08038
  103        273     0.06896
  104        290     0.07908
  105        291     0.06673
  106        292     0.08670
  107        291     0.05943
  108        285     0.05639
  109        308     0.06195
  110        275     0.05600
  111        257     0.06711
  112        278     0.05591
  113        277     0.05657
  114        319     0.06407
  115        293     0.06201
  116        293     0.07754
  117        270     0.06764
  118        282     0.06097
  119        288     0.05853
  120        259     0.06187
  121        290     0.05335
  122        257     0.06309
  123        290     0.07018
  124        298     0.06208
  125        260     0.06691
  126        284     0.05007
  127        263     0.05291
  128        243     0.05212
  129        273     0.06432
  130        260     0.04249
  131        242     0.03944
  132        277     0.04856
  133        291     0.04715
  134        270     0.05255
  135        279     0.07724
  136        268     0.05164
  137        231     0.05126
  138        265     0.05875
  139        253     0.05220
  140        249     0.04668
  141        256     0.05338
  142        262     0.04831
  143        270     0.05965
  144        220     0.04443
  145        258     0.05119
  146        262     0.05185
  147        261     0.03815
  148        262     0.05390
  149        273     0.06126
  150        260     0.05768
  151        236     0.04388
  152        273     0.04536
  153        281     0.04393
  154        260     0.04870
  155        246     0.05210
  156        242     0.03802
  157        239     0.04458
  158        243     0.03825
  159        264     0.05026
  160        237     0.05405
  161        221     0.04557
  162        247     0.03933
  163        230     0.03223
  164        250     0.04455
  165        257     0.04603
  166        226     0.03699
  167        254     0.03938
  168        235     0.04011
  169        261     0.03178
  170        228     0.03723
  171        237     0.04270
  172        220     0.04289
  173        260     0.04367
  174        237     0.04467
  175        262     0.04304
  176        224     0.03455
  177        236     0.03721
  178        213     0.03738
  179        237     0.03818
  180        226     0.03516
  181        232     0.04128
  182        245     0.05831
  183        266     0.03907
  184        239     0.03979
  185        247     0.04421
  186        241     0.03768
  187        255     0.05869
  188        211     0.04476
  189        222     0.03599
  190        206     0.03475
  191        237     0.05219
  192        242     0.04283
  193        202     0.03004
  194        238     0.04054
  195        221     0.03669
  196        229     0.03841
  197        197     0.03232
  198        237     0.03579
  199        223     0.03247
  200        196     0.03548
  201        216     0.03257
  202        230     0.04011
  203        219     0.04189
  204        219     0.03286
  205        223     0.03813
  206        225     0.02935
  207        230     0.02934
  208        209     0.03621
  209        229     0.02869
  210        214     0.02754
  211        203     0.03578
  212        185     0.03934
  213        216     0.03615
  214        195     0.03520
  215        226     0.02905
  216        196     0.03642
  217        206     0.03056
  218        207     0.03061
  219        223     0.04275
  220        215     0.02880
  221        184     0.03358
  222        211     0.04231
  223        206     0.03705
  224        204     0.02834
  225        203     0.03220
  226        199     0.03887
  227        205     0.03209
  228        207     0.03692
  229        200     0.03542
  230        227     0.03317
  231        202     0.02463
  232        232     0.03173
  233        177     0.03784
  234        193     0.03056
  235        212     0.02775
  236        202     0.02648
  237        232     0.03220
  238        191     0.03638
  239        203     0.02772
  240        204     0.02996
  241        218     0.03048
  242        203     0.04128
  243        199     0.04142
  244        212     0.02927
  245        195     0.03119
  246        210     0.03957
  247        201     0.02542
  248        188     0.03336
  249        189     0.02362
  250        188     0.03112
  251        188     0.03455
  252        171     0.02781
  253        228     0.03360
  254        191     0.03326
  255        172     0.02994
  256        191     0.04074
  257        197     0.03326
  258        195     0.03424
  259        184     0.02536
  260        214     0.02899
  261        221     0.03700
  262        202     0.02835
  263        228     0.02485
  264        194     0.02761
  265        179     0.02648
  266        166     0.02493
  267        177     0.02904
  268        191     0.02941
  269        211     0.02729
  270        188     0.04265
  271        190     0.03847
  272        212     0.02695
  273        206     0.02550
  274        168     0.03581
  275        181     0.03054
  276        168     0.02786
  277        188     0.03320
  278        194     0.03014
  279        186     0.02767
  280        199     0.03467
  281        173     0.02620
  282        182     0.03203
  283        161     0.03250
  284        162     0.02664
  285        153     0.03161
  286        169     0.03589
  287        154     0.02725
  288        137     0.02643
  289        139     0.02543
  290        129     0.02532
  291        123     0.02805
  292        120     0.02471
  293        116     0.02201
  294        124     0.02800
  295        134     0.02517
  296        116     0.01779
  297        105     0.02438
  298         91     0.02044
  299        106     0.01978
  300         88     0.02155
  301         94     0.01995
  302         85     0.02331
  303         82     0.02139
  304         76     0.01683
  305         75     0.01929
  306         62     0.02421
  307         69     0.01785
  308         66     0.02266
  309         80     0.02567
  310         86     0.01770
  311         76     0.02328
  312         58     0.02511
  313         70     0.02255
  314         79     0.01895
  315         61     0.02195
  316         49     0.01460
  317         69     0.02217
  318         42     0.01911
  319         54     0.01520
  320         60     0.01387
  321         52     0.02880
  322         45     0.01629
  323         43     0.01746
  324         39     0.01206
  325         45     0.02544
  326         43     0.01700
  327         49     0.01605
  328         57     0.01764
  329         70     0.02519
  330         38     0.02203
  331         35     0.01091
  332         33     0.01334
  333         50     0.01206
  334         58     0.02109
  335         33     0.01336
  336         46     0.01301
  337         32     0.01810
  338         55     0.02375
  339         32     0.01619
  340         48     0.02758
  341         28     0.00910
  342         38     0.01783
  343         37     0.01677
  344         38     0.01821
  345         43     0.01728
  346         38     0.02019
  347         39     0.01629
  348         37     0.01080
  349         36     0.02316
  350         34     0.01489
  351         32     0.01324
  352         30     0.01830
  353         43     0.01668
  354         35     0.01411
  355         25     0.01263
  356         22     0.00962
  357         28     0.01286
  358         34     0.01887
  359         28     0.00906
  360         29     0.01390
  361         27     0.01978
  362         26     0.01383
  363         29     0.01205
  364         42     0.01993
  365         28     0.01989
  366         28     0.01532
  367         27     0.01257
  368         29     0.01086
  369         31     0.01138
  370         30     0.02171
  371         21     0.01234
  372         19     0.00915
  373         12     0.00749
  374         24     0.01383
  375         23     0.01738
  376         20     0.01216
  377         21     0.00944
  378         22     0.00884
  379         24     0.01102
  380         26     0.01191
  381         26     0.02101
  382         23     0.01413
  383         23     0.01689
  384         20     0.00854
  385         23     0.02052
  386         24     0.01900
  387         24     0.01281
  388         33     0.02146
  389         21     0.01287
  390         23     0.01312
  391         16     0.01234
  392         20     0.01878
  393         18     0.00833
  394         14     0.01170
  395         20     0.00962
  396         15     0.01025
  397         26     0.01342
  398         19     0.02217
  399         25     0.00951
  400         14     0.00869
  401         13     0.01153
  402         16     0.01408
  403         28     0.01107
  404         26     0.00975
  405         10     0.01001
  406         13     0.01221
  407         18     0.01302
  408         21     0.02219
  409         18     0.01138
  410         15     0.01278
  411         19     0.01239
  412         15     0.01008
  413         13     0.01220
  414         20     0.01268
  415         19     0.01083
  416         17     0.00810
  417         14     0.01202
  418         23     0.01913
  419         17     0.00828
  420         15     0.00849
  421         13     0.01292
  422         18     0.00809
  423         16     0.01140
  424         11     0.01240
  425         21     0.01271
  426         20     0.01161
  427         12     0.00993
  428          9     0.00939
  429         14     0.00820
  430         12     0.00786
  431         14     0.01284
  432         14     0.01162
  433         13     0.01187
  434         15     0.00975
  435         20     0.01077
  436          9     0.00909
  437         10     0.00926
  438         16     0.01434
  439         16     0.01007
  440         12     0.01168
  441         12     0.01044
  442          9     0.01104
  443         19     0.00906
  444         13     0.00773
  445         16     0.00804
  446         12     0.01102
  447         16     0.01055
  448         10     0.00887
  449          9     0.00803
  450          9     0.00717
  451         16     0.00791
  452         14     0.00748
  453         10     0.01086
  454         13     0.01062
  455         11     0.01335
  456         11     0.00740
  457          9     0.00730
  458         11     0.00698
  459         10     0.00719
  460         10     0.00723
  461          8     0.00700
  462         12     0.00804
  463         11     0.01480
  464         12     0.00781
  465         10     0.01212
  466          9     0.00723
  467          8     0.00774
  468         12     0.01510
  469         12     0.00761
  470         13     0.01097
  471         15     0.01313
  472          6     0.01276
  473         10     0.00792
  474          6     0.00829
  475          6     0.00670
  476          3     0.00578
  477         18     0.01327
  478          8     0.00877
  479          5     0.01107
  480          8     0.01126
  481          8     0.01246
  482         12     0.00872
  483          5     0.01061
  484          4     0.00628
  485          6     0.00603
  486          5     0.00661
  487          4     0.00669
  488         12     0.01268
  489         11     0.00898
  490          5     0.00927
  491          4     0.00650
  492          4     0.00667
  493          9     0.00732
  494          4     0.01581
  495          7     0.00688
  496          7     0.00691
  497          3     0.00613
  498          5     0.00638
  499          5     0.00628
  500          9     0.00675
  501          7     0.01091
  502          4     0.00652
  503          9     0.01347
  504          8     0.00950
  505          9     0.00751
  506          9     0.00679
  507         11     0.00941
  508          5     0.00724
  509          9     0.01055
  510          8     0.00680
  511          4     0.00631
  512          3     0.00577
  513          7     0.00912
  514          5     0.00630
  515          1     0.00568
  516          4     0.00684
  517          7     0.00691
  518          4     0.00635
  519          7     0.00811
  520          1     0.00571
  521          3     0.00593
  522          2     0.00600
  523          4     0.00590
  524          7     0.00608
  525          5     0.01012
  526          3     0.00888
  527          5     0.00703
  528          3     0.00579
  529          3     0.00582
  530          4     0.01039
  531          3     0.00597
  532          4     0.00595
  533          4     0.00620
  534          3     0.00614
  535          1     0.00556
  536          2     0.00593
  537          4     0.01323
  538          3     0.00713
  539          2     0.00602
  540          4     0.00654
  541          5     0.00908
  542          2     0.01059
  543          1     0.00587
  544          2     0.00552
  545          4     0.00610
  546          8     0.01187
  547          3     0.00636
  548          2     0.00557
  549          4     0.00676
  550          5     0.01196
  551          1     0.00539
  552          3     0.00569
  553          2     0.00552
  554          5     0.00896
  555          1     0.00592
  556          2     0.00547
  557          4     0.00585
  558          3     0.00613
  559          3     0.00772
  561          6     0.00651
  562          3     0.00947
  563          2     0.00590
  564          4     0.00610
  566          2     0.00576
  568          1     0.00561
  569          1     0.00573
  570          1     0.00599
  571          1     0.00882
  572          3     0.00632
  573          4     0.00999
  574          3     0.00597
  575          3     0.00919
  576          2     0.00647
  578          3     0.00584
  579          2     0.00916
  580          1     0.00552
  581          1     0.00620
  582          3     0.00626
  584          4     0.00618
  585          4     0.01110
  586          1     0.00589
  588          2     0.00560
  589          3     0.00712
  590          2     0.00565
  591          2     0.00623
  593          2     0.00562
  594          4     0.00575
  595          2     0.00594
  596          1     0.00556
  600          1     0.00568
  601          1     0.00542
  602          1     0.00570
  603          2     0.00537
  604          3     0.00577
  605          3     0.01011
  606          1     0.00586
  608          2     0.00591
  609          1     0.00638
  610          4     0.00669
  612          1     0.00607
  614          1     0.00555
  615          2     0.00654
  616          1     0.00580
  618          2     0.01309
  619          2     0.00627
  621          1     0.00581
  622          1     0.00622
  623          3     0.01515
  624          2     0.00896
  625          1     0.00559
  626          2     0.00645
  627          2     0.00864
  628          4     0.00886
  629          2     0.00599
  630          2     0.00571
  634          1     0.00570
  635          3     0.00557
  637          3     0.00980
  638          2     0.00598
  639          1     0.00534
  640          1     0.00584
  641          1     0.00585
  642          1     0.00617
  643          1     0.00894
  646          2     0.00590
  648          2     0.00663
  649          2     0.00915
  653          2     0.00545
  654          1     0.00577
  655          2     0.00590
  656          1     0.00570
  657          2     0.00613
  658          1     0.00585
  659          1     0.00941
  660          1     0.00577
  661          1     0.00563
  663          1     0.00611
  667          1     0.00619
[...]
 1246          1     0.00597
took 692 iterations
Trial Time:          0.04666
    0          1     0.02266
  149          1     0.03714
  175          1     0.22419
  176          1     0.02417
  177          1     0.13525
  178          1     0.02559
  179          3     0.11868
  180          4     0.05448
  181          7     0.34137
  182          7     0.17394
  183          8     0.18391
  184         10     0.33649
  185          9     0.12997
  186         20     0.31205
  187         22     0.23401
  188         23     0.63064
  189         46     0.45848
  190         52     0.31654
  191         55     0.49759
  192         81     0.45809
  193         99     0.63577
  194        111     0.54561
  195        126     0.55810
  196        163     0.45395
  197        165     0.51657
  198        199     0.94579
  199        195     0.77488
  200        257     0.48446
  201        222     0.42212
  202        230     0.40542
  203        278     0.39581
  204        296     0.44162
  205        312     0.57916
  206        322     0.42526
  207        320     0.32817
  208        307     0.42886
  209        333     0.37820
  210        311     0.36659
  211        377     0.33013
  212        360     0.30716
  213        346     0.35832
  214        335     0.33106
  215        350     0.25104
  216        341     0.27123
  217        353     0.31844
  218        370     0.22951
  219        389     0.33154
  220        336     0.17046
  221        326     0.21901
  222        370     0.19248
  223        374     0.16907
  224        359     0.21164
  225        333     0.15807
  226        348     0.14338
  227        353     0.17860
  228        344     0.16400
  229        385     0.18828
  230        368     0.14985
  231        359     0.14306
  232        341     0.12591
  233        331     0.11546
  234        364     0.11487
  235        341     0.17261
  236        358     0.13810
  237        355     0.11322
  238        338     0.12059
  239        323     0.10905
  240        356     0.09650
  241        309     0.09892
  242        314     0.11025
  243        354     0.08534
  244        304     0.09546
  245        309     0.09762
  246        309     0.09623
  247        325     0.09726
  248        333     0.08450
  249        315     0.09195
  250        291     0.07730
  251        318     0.08288
  252        313     0.09279
  253        320     0.08390
  254        300     0.08090
  255        309     0.09168
  256        333     0.09037
  257        305     0.07786
  258        303     0.06894
  259        295     0.08084
  260        323     0.09504
  261        305     0.06889
  262        299     0.07441
  263        264     0.06346
  264        295     0.08348
  265        291     0.06648
  266        315     0.06275
  267        258     0.06708
  268        307     0.07206
  269        296     0.05669
  270        275     0.06918
  271        267     0.06367
  272        294     0.05940
  273        264     0.06194
  274        282     0.05667
  275        292     0.07942
  276        306     0.05652
  277        262     0.06617
  278        331     0.07958
  279        305     0.06660
  280        291     0.05848
  281        275     0.05626
  282        275     0.06266
  283        280     0.05409
  284        294     0.05188
  285        269     0.04791
  286        292     0.07905
  287        271     0.05499
  288        263     0.06429
  289        276     0.05242
  290        262     0.05549
  291        278     0.05482
  292        265     0.05685
  293        262     0.05052
  294        261     0.06325
  295        274     0.05627
  296        267     0.04930
  297        251     0.08175
  298        262     0.06586
  299        287     0.05251
  300        257     0.05220
  301        228     0.05385
  302        257     0.05300
  303        279     0.04579
  304        248     0.04802
  305        237     0.04548
  306        247     0.04115
  307        259     0.05619
  308        252     0.05388
  309        252     0.04971
  310        235     0.04801
  311        244     0.05078
  312        218     0.05018
  313        259     0.04491
  314        242     0.04380
  315        271     0.04658
  316        232     0.06073
  317        277     0.05344
  318        252     0.05122
  319        246     0.04795
  320        261     0.04239
  321        232     0.03819
  322        217     0.03929
  323        246     0.04860
  324        246     0.04306
  325        232     0.04102
  326        226     0.03499
  327        229     0.02937
  328        255     0.04827
  329        271     0.03751
  330        253     0.04421
  331        231     0.04631
  332        271     0.04562
  333        226     0.03905
  334        231     0.03721
  335        230     0.04340
  336        259     0.03963
  337        237     0.04936
  338        214     0.03389
  339        252     0.04954
  340        238     0.04199
  341        258     0.04249
  342        241     0.04125
  343        257     0.03900
  344        223     0.03096
  345        276     0.03979
  346        235     0.03487
  347        248     0.04574
  348        223     0.04444
  349        222     0.03511
  350        231     0.04149
  351        227     0.03480
  352        214     0.04097
  353        238     0.04097
  354        210     0.02782
  355        229     0.03977
  356        209     0.02508
  357        227     0.03804
  358        223     0.03846
  359        213     0.03584
  360        199     0.03438
  361        228     0.05036
  362        214     0.03463
  363        227     0.04285
  364        215     0.02852
  365        216     0.03486
  366        217     0.03754
  367        196     0.03328
  368        221     0.03016
  369        225     0.02915
  370        216     0.02951
  371        200     0.03717
  372        238     0.04131
  373        210     0.03683
  374        214     0.04934
  375        230     0.03471
  376        205     0.02944
  377        193     0.02809
  378        198     0.03165
  379        224     0.03337
  380        206     0.03096
  381        201     0.03608
  382        217     0.03607
  383        195     0.02995
  384        207     0.03363
  385        205     0.02930
  386        215     0.03840
  387        209     0.02966
  388        223     0.03639
  389        168     0.04394
  390        203     0.03879
  391        200     0.02698
  392        188     0.03309
  393        202     0.03136
  394        188     0.03953
  395        198     0.03041
  396        214     0.04371
  397        217     0.02766
  398        204     0.03030
  399        211     0.03022
  400        204     0.02957
  401        188     0.03816
  402        196     0.02584
  403        226     0.03503
  404        221     0.03042
  405        180     0.03206
  406        176     0.02724
  407        216     0.02873
  408        185     0.03146
  409        182     0.02441
  410        208     0.03457
  411        192     0.03405
  412        189     0.03898
  413        187     0.03454
  414        215     0.02712
  415        197     0.02550
  416        202     0.02850
  417        196     0.03208
  418        212     0.03468
  419        178     0.03111
  420        203     0.02517
  421        212     0.02588
  422        200     0.03457
  423        190     0.03918
  424        179     0.02698
  425        196     0.02802
  426        205     0.03957
  427        202     0.03447
  428        176     0.02592
  429        176     0.02857
  430        184     0.03258
  431        225     0.02587
  432        208     0.03033
  433        194     0.03386
  434        188     0.03556
  435        185     0.04172
  436        177     0.02895
  437        206     0.03525
  438        203     0.03225
  439        188     0.02801
  440        172     0.02490
  441        164     0.03442
  442        183     0.02842
  443        179     0.03335
  444        167     0.03746
  445        183     0.02911
  446        144     0.02640
  447        166     0.02238
  448        157     0.02332
  449        151     0.02643
  450        148     0.03191
  451        153     0.02482
  452        143     0.03782
  453        141     0.02443
  454        126     0.02450
  455        134     0.02128
  456        113     0.02688
  457        104     0.01969
  458        124     0.02035
  459        123     0.01922
  460        109     0.02056
  461        107     0.02240
  462         81     0.01835
  463         95     0.02496
  464         88     0.02404
  465         96     0.02049
  466         88     0.02067
  467         87     0.02544
  468         79     0.01809
  469         87     0.02201
  470         71     0.02141
  471         74     0.02325
  472         66     0.02041
  473         65     0.01492
  474         70     0.02241
  475         74     0.02190
  476         60     0.01536
  477         55     0.02500
  478         53     0.02201
  479         56     0.01491
  480         56     0.01727
  481         54     0.01947
  482         52     0.01864
  483         54     0.02047
  484         49     0.02324
  485         51     0.01715
  486         57     0.02198
  487         50     0.02186
  488         46     0.01597
  489         55     0.01958
  490         50     0.02349
  491         47     0.01475
  492         46     0.01674
  493         54     0.02285
  494         44     0.01973
  495         38     0.01375
  496         50     0.01556
  497         42     0.01754
  498         41     0.01978
  499         44     0.01205
  500         47     0.02053
  501         34     0.01050
  502         60     0.02582
  503         39     0.02341
  504         40     0.02056
  505         35     0.01466
  506         40     0.01263
  507         33     0.01537
  508         33     0.01032
  509         49     0.01381
  510         31     0.01600
  511         40     0.01372
  512         29     0.01940
  513         34     0.01378
  514         24     0.01148
  515         33     0.02027
  516         37     0.01642
  517         29     0.01531
  518         23     0.00960
  519         24     0.01245
  520         31     0.01338
  521         28     0.01443
  522         22     0.01269
  523         44     0.02186
  524         28     0.01802
  525         29     0.01029
  526         28     0.01750
  527         29     0.01526
  528         34     0.01426
  529         18     0.00836
  530         27     0.01188
  531         35     0.01569
  532         24     0.01431
  533         32     0.02151
  534         31     0.01763
  535         24     0.02458
  536         20     0.01430
  537         24     0.00892
  538         22     0.01039
  539         18     0.00883
  540         21     0.01074
  541         25     0.01401
  542         16     0.00823
  543         25     0.00985
  544         24     0.01610
  545         25     0.01364
  546         20     0.01761
  547         29     0.01204
  548         21     0.01542
  549         21     0.01638
  550         22     0.01924
  551         21     0.01257
  552         24     0.01817
  553         23     0.01435
  554         25     0.00952
  555         19     0.01224
  556         25     0.00962
  557         24     0.00936
  558         18     0.00857
  559         24     0.01242
  560         16     0.01615
  561         17     0.01328
  562         20     0.01441
  563         17     0.01297
  564         16     0.00782
  565         20     0.00876
  566         15     0.01229
  567         12     0.01099
  568         18     0.01751
  569         11     0.01137
  570         28     0.02160
  571         19     0.00891
  572         16     0.01103
  573         24     0.00937
  574         18     0.00923
  575         20     0.01983
  576         17     0.01290
  577         13     0.00896
  578         15     0.01342
  579         15     0.01378
  580         15     0.01061
  581         18     0.01064
  582          8     0.00727
  583         14     0.01171
  584         20     0.01854
  585         17     0.01589
  586         13     0.00867
  587         17     0.00804
  588         17     0.00935
  589         11     0.00719
  590         25     0.00884
  591         14     0.00743
  592         14     0.01037
  593         13     0.01312
  594         17     0.01355
  595          9     0.00938
  596         13     0.00792
  597         15     0.01497
  598         18     0.01271
  599         13     0.00716
  600         14     0.00756
  601         14     0.01346
  602         15     0.01092
  603         11     0.00731
  604          8     0.00715
  605         11     0.00970
  606         16     0.01407
  607         14     0.01317
  608         13     0.00783
  609         13     0.01185
  610         19     0.01039
  611         14     0.00725
  612          9     0.00722
  613         14     0.00896
  614          9     0.00739
  615          9     0.00675
  616         14     0.01333
  617         15     0.00786
  618          7     0.00957
  619          6     0.00986
  620         13     0.00769
  621         10     0.00930
  622         16     0.00783
  623          7     0.00639
  624         10     0.01449
  625         12     0.01150
  626         10     0.00784
  627         10     0.00708
  628          7     0.00975
  629         15     0.00825
  630         12     0.00908
  631         13     0.01729
  632          8     0.00717
  633         10     0.00657
  634         11     0.00776
  635          9     0.00871
  636          8     0.01399
  637          9     0.00713
  638         12     0.01376
  639          9     0.00708
  640          8     0.01013
  641          8     0.01196
  642         12     0.00806
  643          7     0.00617
  644          5     0.00613
  645          6     0.00694
  646          7     0.00653
  647          6     0.03212
  648          8     0.00823
  649          4     0.00662
  650          9     0.00734
  651          6     0.00652
  652          5     0.00749
  653         11     0.00751
  654          7     0.01062
  655          5     0.00654
  656          3     0.00627
  657          5     0.00613
  658          7     0.00651
  659          3     0.00685
  660          8     0.01359
  661          5     0.00600
  662          5     0.00608
  663          5     0.00619
  664          8     0.01483
  665         12     0.00763
  666          9     0.01181
  667          9     0.00723
  668          3     0.00678
  669          6     0.00671
  670          6     0.00664
  671          3     0.00657
  672          5     0.00671
  673          6     0.00635
  674          9     0.00693
  675          5     0.00645
  676          4     0.00606
  677          7     0.00692
  678          7     0.00957
  679          4     0.00581
  680          3     0.00551
  681          5     0.00997
  682          8     0.00644
  683          2     0.00491
  684          4     0.00626
  685          2     0.00546
  686          6     0.01125
  687          6     0.00572
  688          6     0.00614
  689          2     0.00524
  690          4     0.00613
  691          3     0.00547
  692          3     0.00587
  694          5     0.00932
  695          2     0.00578
  696          4     0.00612
  697          3     0.00567
  698          1     0.00551
  699          4     0.00606
  700          5     0.01358
  701          1     0.00571
  702          1     0.00530
  703          4     0.00576
  704          4     0.00592
  705          5     0.00679
  706          6     0.00625
  707          3     0.00574
  708          6     0.00677
  709          2     0.00571
  710          5     0.01234
  711          3     0.00726
  712          5     0.00847
  713          2     0.01491
  714          6     0.00873
  715          1     0.00582
  716          2     0.00545
  717          1     0.00558
  718          2     0.00593
  719          5     0.00621
  720          4     0.00744
  721          5     0.01070
  722          2     0.00610
  723          3     0.00695
  724          4     0.00677
  725          1     0.00585
  728          1     0.00907
  729          1     0.00574
  730          2     0.00602
  731          2     0.01028
  732          2     0.00531
  733          2     0.00786
  734          1     0.00557
  735          3     0.00598
  736          3     0.00579
  737          2     0.00682
  738          1     0.00698
  739          3     0.00651
  740          1     0.00597
  741          2     0.00625
  742          1     0.00551
  743          4     0.01035
  745          1     0.00620
  746          1     0.00632
  747          3     0.00844
  748          2     0.00652
  749          4     0.01036
  750          1     0.00586
  752          3     0.00554
  753          1     0.00543
  754          2     0.00523
  755          1     0.00594
  758          3     0.00615
  759          2     0.00579
  760          3     0.00574
  761          2     0.00545
  763          4     0.00590
  764          3     0.00618
  766          3     0.00602
  769          1     0.00560
  770          4     0.00740
  771          1     0.00555
  773          1     0.00548
  774          3     0.00511
  775          3     0.00880
  776          1     0.00558
  777          1     0.00538
  778          2     0.00555
  779          1     0.00573
  780          2     0.00573
  782          2     0.00575
  783          1     0.00535
  786          2     0.01964
  788          5     0.00960
  789          1     0.00607
  792          4     0.01002
  794          2     0.00732
  795          1     0.00583
  797          3     0.00563
  798          1     0.00884
  799          2     0.00525
  800          2     0.00565
  804          2     0.00808
  805          1     0.00965
  809          3     0.00642
  811          1     0.00574
  812          1     0.00563
  813          2     0.00545
  814          2     0.00543
  815          1     0.00812
  816          1     0.00550
  817          3     0.00928
  818          2     0.00581
  819          1     0.00555
  821          3     0.00562
  824          3     0.00571
  829          1     0.00591
  830          1     0.00589
  831          2     0.03551
  833          2     0.00583
  834          1     0.00605
  837          1     0.00558
  848          2     0.00569
  849          2     0.00547
  850          1     0.00523
  851          1     0.00550
  855          1     0.00526
  856          1     0.00562
  857          1     0.00564
  858          1     0.00517
  859          1     0.00558
  861          1     0.00561
  862          1     0.00848
  867          1     0.00595
  870          1     0.00553
  871          2     0.00813
  872          2     0.00569
  876          1     0.00582
  877          1     0.00514
  879          1     0.00546
  880          1     0.00540
  881          1     0.00555
  887          1     0.00574
  893          1     0.00534
  896          1     0.00573
  899          1     0.00570
  900          1     0.00594
  901          1     0.00515
  908          1     0.00587
  930          1     0.00582
  932          1     0.00531
  941          1     0.00849
  945          2     0.01037
  947          1     0.00574
  951          1     0.00583
  952          1     0.00583
  956          1     0.00799
  961          1     0.00555
  962          1     0.00566
  972          1     0.00536
  989          1     0.00502
  993          1     0.00553
 1002          1     0.00523
 1003          1     0.00599
 1005          1     0.00554
 1009          1     0.00535
 1017          1     0.00543
 1041          1     0.00556
 1046          1     0.01471
 1049          2     0.00575
 1050          1     0.00561
 1051          1     0.00592
 1078          1     0.00601
 1097          1     0.00629
 1238          1     0.00496
took 681 iterations
Trial Time:          0.04565
Average Time:        0.04032
Exiting @ tick 1357934113500 because exiting with last active thread context
